*SPEF "ieee 1481-1999"
*DESIGN "iiitb_gray_cntr"
*DATE "11:11:11 Fri 11 11, 1111"
*VENDOR "OpenRCX"
*PROGRAM "Parallel Extraction"
*VERSION "1.0"
*DESIGN_FLOW "NAME_SCOPE LOCAL" "PIN_CAP NONE"
*DIVIDER /
*DELIMITER :
*BUS_DELIMITER []
*T_UNIT 1 NS
*C_UNIT 1 PF
*R_UNIT 1 OHM
*L_UNIT 1 HENRY

*NAME_MAP
*3 bcd_value[0]
*4 bcd_value[1]
*5 bcd_value[2]
*6 bcd_value[3]
*7 clk
*8 gray_count[0]
*9 gray_count[1]
*10 gray_count[2]
*11 gray_count[3]
*12 rst
*13 _00_
*14 _01_
*15 _02_
*16 _03_
*17 _04_
*18 _05_
*19 _06_
*20 _07_
*21 _08_
*22 _09_
*23 _10_
*24 _11_
*25 _12_
*26 _13_
*27 _14_
*28 _15_
*29 _16_
*30 net1
*31 net10
*32 net2
*33 net3
*34 net4
*35 net5
*36 net6
*37 net7
*38 net8
*39 net9
*40 FILLER_0_21
*41 FILLER_0_27
*42 FILLER_0_29
*43 FILLER_0_3
*44 FILLER_0_35
*45 FILLER_0_47
*46 FILLER_0_55
*47 FILLER_0_57
*48 FILLER_0_69
*49 FILLER_0_77
*50 FILLER_0_9
*51 FILLER_10_15
*52 FILLER_10_27
*53 FILLER_10_29
*54 FILLER_10_3
*55 FILLER_10_33
*56 FILLER_10_37
*57 FILLER_10_44
*58 FILLER_10_56
*59 FILLER_10_68
*60 FILLER_10_72
*61 FILLER_10_77
*62 FILLER_11_21
*63 FILLER_11_3
*64 FILLER_11_33
*65 FILLER_11_45
*66 FILLER_11_53
*67 FILLER_11_57
*68 FILLER_11_69
*69 FILLER_11_77
*70 FILLER_11_9
*71 FILLER_12_21
*72 FILLER_12_27
*73 FILLER_12_29
*74 FILLER_12_3
*75 FILLER_12_41
*76 FILLER_12_53
*77 FILLER_12_57
*78 FILLER_12_63
*79 FILLER_12_71
*80 FILLER_12_77
*81 FILLER_12_9
*82 FILLER_1_15
*83 FILLER_1_27
*84 FILLER_1_3
*85 FILLER_1_39
*86 FILLER_1_51
*87 FILLER_1_55
*88 FILLER_1_57
*89 FILLER_1_69
*90 FILLER_1_77
*91 FILLER_2_15
*92 FILLER_2_27
*93 FILLER_2_29
*94 FILLER_2_3
*95 FILLER_2_41
*96 FILLER_2_53
*97 FILLER_2_65
*98 FILLER_2_77
*99 FILLER_3_15
*100 FILLER_3_19
*101 FILLER_3_3
*102 FILLER_3_36
*103 FILLER_3_48
*104 FILLER_3_57
*105 FILLER_3_69
*106 FILLER_3_77
*107 FILLER_4_21
*108 FILLER_4_26
*109 FILLER_4_29
*110 FILLER_4_3
*111 FILLER_4_35
*112 FILLER_4_53
*113 FILLER_4_60
*114 FILLER_4_72
*115 FILLER_4_78
*116 FILLER_4_9
*117 FILLER_5_15
*118 FILLER_5_19
*119 FILLER_5_25
*120 FILLER_5_3
*121 FILLER_5_36
*122 FILLER_5_46
*123 FILLER_5_54
*124 FILLER_5_57
*125 FILLER_5_75
*126 FILLER_6_15
*127 FILLER_6_21
*128 FILLER_6_26
*129 FILLER_6_29
*130 FILLER_6_3
*131 FILLER_6_37
*132 FILLER_6_46
*133 FILLER_6_54
*134 FILLER_6_66
*135 FILLER_6_78
*136 FILLER_7_15
*137 FILLER_7_27
*138 FILLER_7_3
*139 FILLER_7_31
*140 FILLER_7_38
*141 FILLER_7_52
*142 FILLER_7_57
*143 FILLER_7_62
*144 FILLER_7_74
*145 FILLER_7_78
*146 FILLER_8_26
*147 FILLER_8_29
*148 FILLER_8_3
*149 FILLER_8_39
*150 FILLER_8_63
*151 FILLER_8_75
*152 FILLER_8_8
*153 FILLER_9_21
*154 FILLER_9_3
*155 FILLER_9_49
*156 FILLER_9_55
*157 FILLER_9_57
*158 FILLER_9_75
*159 PHY_0
*160 PHY_1
*161 PHY_10
*162 PHY_11
*163 PHY_12
*164 PHY_13
*165 PHY_14
*166 PHY_15
*167 PHY_16
*168 PHY_17
*169 PHY_18
*170 PHY_19
*171 PHY_2
*172 PHY_20
*173 PHY_21
*174 PHY_22
*175 PHY_23
*176 PHY_24
*177 PHY_25
*178 PHY_3
*179 PHY_4
*180 PHY_5
*181 PHY_6
*182 PHY_7
*183 PHY_8
*184 PHY_9
*185 TAP_26
*186 TAP_27
*187 TAP_28
*188 TAP_29
*189 TAP_30
*190 TAP_31
*191 TAP_32
*192 TAP_33
*193 TAP_34
*194 TAP_35
*195 TAP_36
*196 TAP_37
*197 TAP_38
*198 TAP_39
*199 TAP_40
*200 _17_
*201 _18_
*202 _19_
*203 _20_
*204 _21_
*205 _22_
*206 _23_
*207 _24_
*208 _25_
*209 _26_
*210 _27_
*211 _28_
*212 _29_
*213 _30_
*214 _31_
*215 _32_
*216 _33_
*217 _34_
*218 _35_
*219 _36_
*220 _37_
*221 _38_
*222 _39_
*223 _40_
*224 _41_
*225 input1
*226 input2
*227 output10
*228 output3
*229 output4
*230 output5
*231 output6
*232 output7
*233 output8
*234 output9

*PORTS
bcd_value[0] O
bcd_value[1] O
bcd_value[2] O
bcd_value[3] O
clk I
gray_count[0] O
gray_count[1] O
gray_count[2] O
gray_count[3] O
rst I

*D_NET *3 0.00206295
*CONN
*P bcd_value[0] O
*I *228:X O *D sky130_fd_sc_hd__buf_2
*CAP
1 bcd_value[0] 0.000549711
2 *228:X 0.00047252
3 *3:7 0.00102223
4 *3:7 *228:A 1.84831e-05
*RES
1 *228:X *3:7 45.2914 
2 *3:7 bcd_value[0] 12.3871 
*END

*D_NET *4 0.00173198
*CONN
*P bcd_value[1] O
*I *229:X O *D sky130_fd_sc_hd__buf_2
*CAP
1 bcd_value[1] 0.00035738
2 *229:X 0.000508611
3 *4:7 0.000865991
*RES
1 *229:X *4:7 46.7207 
2 *4:7 bcd_value[1] 7.99571 
*END

*D_NET *5 0.00167878
*CONN
*P bcd_value[2] O
*I *230:X O *D sky130_fd_sc_hd__buf_2
*CAP
1 bcd_value[2] 0.000586852
2 *230:X 0.000218225
3 *5:7 0.000805078
4 *5:7 *35:48 6.86239e-05
*RES
1 *230:X *5:7 41.0036 
2 *5:7 bcd_value[2] 12.8636 
*END

*D_NET *6 0.00100699
*CONN
*P bcd_value[3] O
*I *231:X O *D sky130_fd_sc_hd__buf_2
*CAP
1 bcd_value[3] 0.000503496
2 *231:X 0.000503496
*RES
1 *231:X bcd_value[3] 48.3364 
*END

*D_NET *7 0.000775661
*CONN
*P clk I
*I *225:A I *D sky130_fd_sc_hd__clkbuf_2
*CAP
1 clk 0.00038783
2 *225:A 0.00038783
*RES
1 clk *225:A 49.0973 
*END

*D_NET *8 0.00128182
*CONN
*P gray_count[0] O
*I *232:X O *D sky130_fd_sc_hd__buf_2
*CAP
1 gray_count[0] 0.000532862
2 *232:X 0.000532862
3 gray_count[0] *33:75 0.00012758
4 gray_count[0] *37:6 8.85189e-05
*RES
1 *232:X gray_count[0] 48.984 
*END

*D_NET *9 0.000939885
*CONN
*P gray_count[1] O
*I *233:X O *D sky130_fd_sc_hd__buf_2
*CAP
1 gray_count[1] 0.000469942
2 *233:X 0.000469942
*RES
1 *233:X gray_count[1] 47.0936 
*END

*D_NET *10 0.000874298
*CONN
*P gray_count[2] O
*I *234:X O *D sky130_fd_sc_hd__buf_2
*CAP
1 gray_count[2] 0.000420414
2 *234:X 0.000420414
3 gray_count[2] *31:11 3.347e-05
*RES
1 *234:X gray_count[2] 48.831 
*END

*D_NET *11 0.00140926
*CONN
*P gray_count[3] O
*I *227:X O *D sky130_fd_sc_hd__buf_2
*CAP
1 gray_count[3] 0.000497023
2 *227:X 0.000198358
3 *11:7 0.000695382
4 *11:7 *31:11 1.84917e-05
*RES
1 *227:X *11:7 40.5271 
2 *11:7 gray_count[3] 10.8129 
*END

*D_NET *12 0.000965224
*CONN
*P rst I
*I *226:A I *D sky130_fd_sc_hd__clkbuf_2
*CAP
1 rst 0.000482612
2 *226:A 0.000482612
*RES
1 rst *226:A 48.393 
*END

*D_NET *13 0.000768756
*CONN
*I *217:D I *D sky130_fd_sc_hd__dfxtp_1
*I *200:Y O *D sky130_fd_sc_hd__nor2_1
*CAP
1 *217:D 1.58638e-05
2 *200:Y 0.000342932
3 *13:8 0.000358796
4 *13:8 *200:B 2.07484e-05
5 *13:8 *210:A1 1.09349e-05
6 *13:8 *36:32 1.94812e-05
*RES
1 *200:Y *13:8 44.1729 
2 *13:8 *217:D 38.1916 
*END

*D_NET *14 0.000271758
*CONN
*I *218:D I *D sky130_fd_sc_hd__dfxtp_1
*I *204:X O *D sky130_fd_sc_hd__clkbuf_1
*CAP
1 *218:D 1.3337e-05
2 *204:X 6.47789e-05
3 *14:6 7.81159e-05
4 *14:6 *34:25 0.000115526
*RES
1 *204:X *14:6 39.5536 
2 *14:6 *218:D 38.1916 
*END

*D_NET *15 0.000731071
*CONN
*I *219:D I *D sky130_fd_sc_hd__dfxtp_1
*I *207:Y O *D sky130_fd_sc_hd__a21boi_1
*CAP
1 *219:D 0.000131757
2 *207:Y 0.000161198
3 *15:6 0.000292954
4 *219:D *219:CLK 0.000145163
*RES
1 *207:Y *15:6 40.9621 
2 *15:6 *219:D 40.9 
*END

*D_NET *16 0.000328377
*CONN
*I *220:D I *D sky130_fd_sc_hd__dfxtp_1
*I *210:X O *D sky130_fd_sc_hd__o21a_1
*CAP
1 *220:D 2.88244e-05
2 *210:X 9.1458e-05
3 *16:6 0.000120282
4 *220:D *36:7 5.99746e-05
5 *16:6 *35:6 2.78373e-05
*RES
1 *210:X *16:6 39.5536 
2 *16:6 *220:D 38.668 
*END

*D_NET *17 0.000570665
*CONN
*I *221:D I *D sky130_fd_sc_hd__dfxtp_1
*I *211:Y O *D sky130_fd_sc_hd__nor2_1
*CAP
1 *221:D 3.94474e-05
2 *211:Y 0.000156538
3 *17:8 0.000195985
4 *221:D *33:9 9.05169e-05
5 *17:8 *30:64 6.47558e-05
6 *17:8 *32:11 1.59071e-05
7 *17:8 *32:22 7.51453e-06
*RES
1 *211:Y *17:8 40.8793 
2 *17:8 *221:D 38.9943 
*END

*D_NET *18 0.000452143
*CONN
*I *222:D I *D sky130_fd_sc_hd__dfxtp_2
*I *213:X O *D sky130_fd_sc_hd__o21a_1
*CAP
1 *222:D 8.95491e-06
2 *213:X 0.000180281
3 *18:8 0.000189236
4 *222:D *30:23 1.78697e-05
5 *18:8 *34:19 5.58003e-05
*RES
1 *213:X *18:8 40.8793 
2 *18:8 *222:D 38.1916 
*END

*D_NET *19 0.000397591
*CONN
*I *223:D I *D sky130_fd_sc_hd__dfxtp_1
*I *216:X O *D sky130_fd_sc_hd__clkbuf_1
*CAP
1 *223:D 6.35393e-05
2 *216:X 6.89237e-05
3 *19:6 0.000132463
4 *223:D *30:38 1.86609e-05
5 *19:6 *29:8 0.000114004
*RES
1 *216:X *19:6 39.5536 
2 *19:6 *223:D 38.9373 
*END

*D_NET *20 0.00102335
*CONN
*I *203:B I *D sky130_fd_sc_hd__and3b_1
*I *201:Y O *D sky130_fd_sc_hd__o21ai_1
*CAP
1 *203:B 0
2 *201:Y 0.000373686
3 *20:8 0.000373686
4 *20:8 *33:36 0.000275974
*RES
1 *201:Y *20:8 43.9657 
2 *20:8 *203:B 38 
*END

*D_NET *21 0.000903809
*CONN
*I *203:C I *D sky130_fd_sc_hd__and3b_1
*I *202:X O *D sky130_fd_sc_hd__or3_1
*CAP
1 *203:C 0
2 *202:X 0.000395323
3 *21:5 0.000395323
4 *21:5 *202:C 2.95423e-05
5 *21:5 *34:19 8.36221e-05
*RES
1 *202:X *21:5 28.3857 
2 *21:5 *203:C 23 
*END

*D_NET *22 0.000701339
*CONN
*I *204:A I *D sky130_fd_sc_hd__clkbuf_1
*I *203:X O *D sky130_fd_sc_hd__and3b_1
*CAP
1 *204:A 0
2 *203:X 0.00023002
3 *22:8 0.00023002
4 *22:8 *34:19 0.00018882
5 *22:8 *34:25 4.89706e-05
6 *22:8 *34:37 3.50862e-06
*RES
1 *203:X *22:8 42.3086 
2 *22:8 *204:A 38 
*END

*D_NET *23 0.00229695
*CONN
*I *206:A2 I *D sky130_fd_sc_hd__o21ba_1
*I *207:A2 I *D sky130_fd_sc_hd__a21boi_1
*I *215:A I *D sky130_fd_sc_hd__and2_1
*I *205:X O *D sky130_fd_sc_hd__a21o_1
*CAP
1 *206:A2 0.000126225
2 *207:A2 0.00022722
3 *215:A 0.000213018
4 *205:X 0
5 *23:21 0.000456131
6 *23:5 0.000315704
7 *206:A2 *206:A1 5.47983e-06
8 *206:A2 *36:9 8.87641e-05
9 *207:A2 *207:B1_N 0.000280787
10 *207:A2 *224:A 5.82853e-05
11 *207:A2 *36:9 0.000186875
12 *215:A *29:8 8.2716e-05
13 *215:A *32:57 1.12863e-05
14 *215:A *33:36 3.22051e-05
15 *215:A *33:53 1.16814e-05
16 *215:A *34:44 5.56279e-05
17 *23:21 *29:8 6.22448e-06
18 *23:21 *32:57 0.000138719
*RES
1 *205:X *23:5 38 
2 *23:5 *215:A 43.0543 
3 *23:5 *23:21 17.2579 
4 *23:21 *207:A2 29.5043 
5 *23:21 *206:A2 25.5479 
*END

*D_NET *24 0.000634689
*CONN
*I *207:B1_N I *D sky130_fd_sc_hd__a21boi_1
*I *206:X O *D sky130_fd_sc_hd__o21ba_1
*CAP
1 *207:B1_N 3.65572e-05
2 *206:X 3.65572e-05
3 *207:B1_N *36:9 0.000280787
4 *207:A2 *207:B1_N 0.000280787
*RES
1 *206:X *207:B1_N 49.0036 
*END

*D_NET *25 0.00241402
*CONN
*I *210:A2 I *D sky130_fd_sc_hd__o21a_1
*I *214:B I *D sky130_fd_sc_hd__nor2_1
*I *209:A2 I *D sky130_fd_sc_hd__a21oi_1
*I *208:X O *D sky130_fd_sc_hd__and3_1
*CAP
1 *210:A2 3.56641e-05
2 *214:B 0
3 *209:A2 0.0001666
4 *208:X 0
5 *25:23 0.000357522
6 *25:17 0.000464222
7 *25:5 0.000237636
8 *209:A2 *208:C 0.000141344
9 *209:A2 *28:6 2.42177e-05
10 *209:A2 *30:26 4.53779e-05
11 *210:A2 *210:A1 2.95423e-05
12 *210:A2 *35:20 9.79925e-05
13 *25:17 *28:6 4.19533e-05
14 *25:17 *30:26 8.07381e-05
15 *25:23 *214:A 2.95125e-05
16 *25:23 *28:6 0.00056371
17 *25:23 *35:6 0
18 *25:23 *35:20 9.79925e-05
19 *25:23 *35:48 0
*RES
1 *208:X *25:5 38 
2 *25:5 *209:A2 41.7286 
3 *25:5 *25:17 17.2579 
4 *25:17 *25:23 39.3421 
5 *25:23 *214:B 23 
6 *25:17 *210:A2 24.0979 
*END

*D_NET *26 0.000628764
*CONN
*I *210:B1 I *D sky130_fd_sc_hd__o21a_1
*I *209:Y O *D sky130_fd_sc_hd__a21oi_1
*CAP
1 *210:B1 8.73336e-05
2 *209:Y 0.00010034
3 *26:6 0.000187674
4 *210:B1 *210:A1 0.000103405
5 *26:6 *200:B 0.000138719
6 *26:6 *34:84 1.12919e-05
*RES
1 *209:Y *26:6 40.2579 
2 *26:6 *210:B1 40.0507 
*END

*D_NET *27 0.000783566
*CONN
*I *213:B1 I *D sky130_fd_sc_hd__o21a_1
*I *212:Y O *D sky130_fd_sc_hd__a21oi_1
*CAP
1 *213:B1 0
2 *212:Y 0.000145036
3 *27:9 0.000145036
4 *27:9 *212:B1 1.3523e-05
5 *27:9 *32:40 6.42675e-05
6 *27:9 *33:13 8.49442e-05
7 *27:9 *34:11 0.000182213
8 *27:9 *34:19 4.91605e-05
9 *27:9 *34:72 9.93861e-05
*RES
1 *212:Y *27:9 27.9507 
2 *27:9 *213:B1 23 
*END

*D_NET *28 0.00276558
*CONN
*I *215:B I *D sky130_fd_sc_hd__and2_1
*I *214:Y O *D sky130_fd_sc_hd__nor2_1
*CAP
1 *215:B 9.76806e-05
2 *214:Y 0.000291686
3 *28:6 0.000389366
4 *215:B *208:B 0.000116499
5 *215:B *33:30 2.33782e-05
6 *215:B *33:32 0.000231289
7 *215:B *33:36 0.000100477
8 *215:B *34:44 7.77228e-05
9 *28:6 *214:A 0.000509586
10 *28:6 *32:51 0.000298018
11 *209:A2 *28:6 2.42177e-05
12 *25:17 *28:6 4.19533e-05
13 *25:23 *28:6 0.00056371
*RES
1 *214:Y *28:6 48.7093 
2 *28:6 *215:B 41.9564 
*END

*D_NET *29 0.00167437
*CONN
*I *216:A I *D sky130_fd_sc_hd__clkbuf_1
*I *215:X O *D sky130_fd_sc_hd__and2_1
*CAP
1 *216:A 4.66792e-05
2 *215:X 0.000546004
3 *29:8 0.000592684
4 *29:8 *214:A 0
5 *29:8 *32:57 6.15872e-05
6 *29:8 *33:53 0.000168678
7 *29:8 *34:44 5.5792e-05
8 *215:A *29:8 8.2716e-05
9 *19:6 *29:8 0.000114004
10 *23:21 *29:8 6.22448e-06
*RES
1 *215:X *29:8 48.9786 
2 *29:8 *216:A 38.6214 
*END

*D_NET *30 0.00908441
*CONN
*I *221:CLK I *D sky130_fd_sc_hd__dfxtp_1
*I *217:CLK I *D sky130_fd_sc_hd__dfxtp_1
*I *223:CLK I *D sky130_fd_sc_hd__dfxtp_1
*I *219:CLK I *D sky130_fd_sc_hd__dfxtp_1
*I *220:CLK I *D sky130_fd_sc_hd__dfxtp_1
*I *222:CLK I *D sky130_fd_sc_hd__dfxtp_2
*I *218:CLK I *D sky130_fd_sc_hd__dfxtp_1
*I *225:X O *D sky130_fd_sc_hd__clkbuf_2
*CAP
1 *221:CLK 0
2 *217:CLK 0.000365773
3 *223:CLK 0
4 *219:CLK 0.000317071
5 *220:CLK 0
6 *222:CLK 2.30556e-05
7 *218:CLK 0
8 *225:X 0.000354633
9 *30:64 0.000452656
10 *30:38 0.000912263
11 *30:35 0.00105387
12 *30:26 0.000598609
13 *30:23 0.00124855
14 *30:15 0.000786153
15 *30:10 9.62712e-05
16 *30:5 0.000923809
17 *30:10 *34:25 8.07381e-05
18 *30:23 *211:A 0.000100477
19 *30:26 *208:C 0.000294888
20 *30:26 *211:A 0.00011619
21 *30:26 *33:30 6.03228e-05
22 *30:26 *34:8 8.57485e-05
23 *30:26 *35:6 0.000155302
24 *30:35 *35:6 0.000168669
25 *30:64 *211:A 0.000456032
26 *30:64 *32:11 9.5956e-06
27 *30:64 *32:22 2.1819e-05
28 *30:64 *33:9 2.93431e-05
29 *209:A2 *30:26 4.53779e-05
30 *219:D *219:CLK 0.000145163
31 *222:D *30:23 1.78697e-05
32 *223:D *30:38 1.86609e-05
33 *17:8 *30:64 6.47558e-05
34 *25:17 *30:26 8.07381e-05
*RES
1 *225:X *30:5 28.8621 
2 *30:5 *30:10 32.2579 
3 *30:10 *218:CLK 23 
4 *30:5 *30:15 7.76786 
5 *30:15 *222:CLK 23.4971 
6 *30:15 *30:23 5.38571 
7 *30:23 *30:26 26.7657 
8 *30:26 *220:CLK 38 
9 *30:26 *30:35 17.2579 
10 *30:35 *30:38 7.66429 
11 *30:38 *219:CLK 29.3386 
12 *30:38 *223:CLK 23 
13 *30:35 *217:CLK 29.7114 
14 *30:23 *30:64 39.3214 
15 *30:64 *221:CLK 23 
*END

*D_NET *31 0.00165344
*CONN
*I *227:A I *D sky130_fd_sc_hd__buf_2
*I *224:X O *D sky130_fd_sc_hd__clkbuf_1
*CAP
1 *227:A 0
2 *224:X 5.17125e-05
3 *31:11 0.000555436
4 *31:7 0.000607148
5 *31:11 *39:6 0.000387183
6 gray_count[2] *31:11 3.347e-05
7 *11:7 *31:11 1.84917e-05
*RES
1 *224:X *31:7 38.6214 
2 *31:7 *31:11 27.7393 
3 *31:11 *227:A 23 
*END

*D_NET *32 0.00978902
*CONN
*I *200:B I *D sky130_fd_sc_hd__nor2_1
*I *209:B1 I *D sky130_fd_sc_hd__a21oi_1
*I *214:A I *D sky130_fd_sc_hd__nor2_1
*I *206:B1_N I *D sky130_fd_sc_hd__o21ba_1
*I *203:A_N I *D sky130_fd_sc_hd__and3b_1
*I *212:B1 I *D sky130_fd_sc_hd__a21oi_1
*I *211:B I *D sky130_fd_sc_hd__nor2_1
*I *226:X O *D sky130_fd_sc_hd__clkbuf_2
*CAP
1 *200:B 0.000240582
2 *209:B1 0
3 *214:A 0.000298526
4 *206:B1_N 0
5 *203:A_N 0.000240414
6 *212:B1 0.000107602
7 *211:B 0
8 *226:X 0.000390412
9 *32:71 0.000323028
10 *32:57 0.000325265
11 *32:51 0.000946644
12 *32:40 0.000948839
13 *32:37 0.000553551
14 *32:22 0.000513727
15 *32:11 0.000800993
16 *32:7 0.000870812
17 *200:B *210:A1 0.000318666
18 *200:B *34:84 0.000402076
19 *203:A_N *34:19 6.86347e-05
20 *212:B1 *33:13 5.40241e-05
21 *212:B1 *34:72 5.83282e-05
22 *32:22 *211:A 0.000191755
23 *32:37 *34:84 2.50756e-05
24 *32:40 *33:9 5.56279e-05
25 *32:40 *33:13 0.000318922
26 *32:40 *34:19 2.75275e-06
27 *32:57 *35:20 0.000319076
28 *32:57 *35:25 2.48025e-05
29 *32:71 *34:84 4.80826e-05
30 *215:A *32:57 1.12863e-05
31 *13:8 *200:B 2.07484e-05
32 *17:8 *32:11 1.59071e-05
33 *17:8 *32:22 7.51453e-06
34 *23:21 *32:57 0.000138719
35 *25:23 *214:A 2.95125e-05
36 *26:6 *200:B 0.000138719
37 *27:9 *212:B1 1.3523e-05
38 *27:9 *32:40 6.42675e-05
39 *28:6 *214:A 0.000509586
40 *28:6 *32:51 0.000298018
41 *29:8 *214:A 0
42 *29:8 *32:57 6.15872e-05
43 *30:64 *32:11 9.5956e-06
44 *30:64 *32:22 2.1819e-05
*RES
1 *226:X *32:7 43.8621 
2 *32:7 *32:11 23.99 
3 *32:11 *211:B 23 
4 *32:11 *32:22 20.9346 
5 *32:22 *212:B1 40.5375 
6 *32:22 *32:37 1.3775 
7 *32:37 *32:40 20.8621 
8 *32:40 *203:A_N 26.8529 
9 *32:40 *32:51 20.7793 
10 *32:51 *32:57 35.8621 
11 *32:57 *206:B1_N 38 
12 *32:51 *214:A 45.54 
13 *32:37 *32:71 1.55357 
14 *32:71 *209:B1 38 
15 *32:71 *200:B 46.0579 
*END

*D_NET *33 0.00999314
*CONN
*I *228:A I *D sky130_fd_sc_hd__buf_2
*I *212:A1 I *D sky130_fd_sc_hd__a21oi_1
*I *213:A1 I *D sky130_fd_sc_hd__o21a_1
*I *208:A I *D sky130_fd_sc_hd__and3_1
*I *205:A1 I *D sky130_fd_sc_hd__a21o_1
*I *201:A1 I *D sky130_fd_sc_hd__o21ai_1
*I *202:A I *D sky130_fd_sc_hd__or3_1
*I *211:A I *D sky130_fd_sc_hd__nor2_1
*I *221:Q O *D sky130_fd_sc_hd__dfxtp_1
*CAP
1 *228:A 8.41137e-05
2 *212:A1 0
3 *213:A1 0
4 *208:A 0
5 *205:A1 0
6 *201:A1 0
7 *202:A 0
8 *211:A 0.000328408
9 *221:Q 0
10 *33:75 0.00113224
11 *33:53 0.000138982
12 *33:41 0.000139763
13 *33:36 0.000438533
14 *33:32 0.000562316
15 *33:30 0.000413966
16 *33:15 0.000617809
17 *33:13 0.000108351
18 *33:9 0.000858722
19 *33:4 0.0017985
20 *211:A *34:8 5.25626e-05
21 *33:9 *34:72 6.225e-06
22 *33:9 *34:84 9.79925e-05
23 *33:30 *208:B 1.09834e-05
24 *33:30 *208:C 8.49347e-05
25 *33:36 *34:44 0.000160189
26 *33:41 *34:37 0.000192032
27 *33:53 *34:49 0.000191581
28 *33:75 *37:6 2.70366e-05
29 gray_count[0] *33:75 0.00012758
30 *212:B1 *33:13 5.40241e-05
31 *215:A *33:36 3.22051e-05
32 *215:A *33:53 1.16814e-05
33 *215:B *33:30 2.33782e-05
34 *215:B *33:32 0.000231289
35 *215:B *33:36 0.000100477
36 *221:D *33:9 9.05169e-05
37 *3:7 *228:A 1.84831e-05
38 *20:8 *33:36 0.000275974
39 *27:9 *33:13 8.49442e-05
40 *29:8 *33:53 0.000168678
41 *30:23 *211:A 0.000100477
42 *30:26 *211:A 0.00011619
43 *30:26 *33:30 6.03228e-05
44 *30:64 *211:A 0.000456032
45 *30:64 *33:9 2.93431e-05
46 *32:22 *211:A 0.000191755
47 *32:40 *33:9 5.56279e-05
48 *32:40 *33:13 0.000318922
*RES
1 *221:Q *33:4 23 
2 *33:4 *33:9 11.2686 
3 *33:9 *33:13 3.97714 
4 *33:13 *33:15 15 
5 *33:15 *211:A 47.1764 
6 *33:15 *33:30 19.4536 
7 *33:30 *33:32 2.52714 
8 *33:32 *33:36 7.31214 
9 *33:36 *33:41 32.61 
10 *33:41 *202:A 23 
11 *33:36 *201:A1 23 
12 *33:32 *33:53 33.6664 
13 *33:53 *205:A1 23 
14 *33:30 *208:A 23 
15 *33:13 *213:A1 23 
16 *33:9 *212:A1 23 
17 *33:4 *33:75 49.9064 
18 *33:75 *228:A 24.5743 
*END

*D_NET *34 0.00954665
*CONN
*I *200:A I *D sky130_fd_sc_hd__nor2_1
*I *212:A2 I *D sky130_fd_sc_hd__a21oi_1
*I *213:A2 I *D sky130_fd_sc_hd__o21a_1
*I *202:B I *D sky130_fd_sc_hd__or3_1
*I *208:B I *D sky130_fd_sc_hd__and3_1
*I *205:A2 I *D sky130_fd_sc_hd__a21o_1
*I *201:A2 I *D sky130_fd_sc_hd__o21ai_1
*I *229:A I *D sky130_fd_sc_hd__buf_2
*I *222:Q O *D sky130_fd_sc_hd__dfxtp_2
*CAP
1 *200:A 0
2 *212:A2 0
3 *213:A2 0
4 *202:B 0
5 *208:B 0.000183577
6 *205:A2 0
7 *201:A2 0
8 *229:A 0
9 *222:Q 0.000169532
10 *34:84 0.000399031
11 *34:72 0.000638778
12 *34:49 0.000107195
13 *34:44 0.000664641
14 *34:37 0.000561542
15 *34:25 0.00102766
16 *34:21 0.00121533
17 *34:19 0.00057032
18 *34:11 0.000710016
19 *34:10 0.000379442
20 *34:8 0.000169532
21 *34:19 *202:C 3.26241e-05
22 *34:37 *202:C 9.04798e-05
23 *200:B *34:84 0.000402076
24 *203:A_N *34:19 6.86347e-05
25 *211:A *34:8 5.25626e-05
26 *212:B1 *34:72 5.83282e-05
27 *215:A *34:44 5.56279e-05
28 *215:B *208:B 0.000116499
29 *215:B *34:44 7.77228e-05
30 *14:6 *34:25 0.000115526
31 *18:8 *34:19 5.58003e-05
32 *21:5 *34:19 8.36221e-05
33 *22:8 *34:19 0.00018882
34 *22:8 *34:25 4.89706e-05
35 *22:8 *34:37 3.50862e-06
36 *26:6 *34:84 1.12919e-05
37 *27:9 *34:11 0.000182213
38 *27:9 *34:19 4.91605e-05
39 *27:9 *34:72 9.93861e-05
40 *29:8 *34:44 5.5792e-05
41 *30:10 *34:25 8.07381e-05
42 *30:26 *34:8 8.57485e-05
43 *32:37 *34:84 2.50756e-05
44 *32:40 *34:19 2.75275e-06
45 *32:71 *34:84 4.80826e-05
46 *33:9 *34:72 6.225e-06
47 *33:9 *34:84 9.79925e-05
48 *33:30 *208:B 1.09834e-05
49 *33:36 *34:44 0.000160189
50 *33:41 *34:37 0.000192032
51 *33:53 *34:49 0.000191581
*RES
1 *222:Q *34:8 40.7757 
2 *34:8 *34:10 15 
3 *34:10 *34:11 2.05071 
4 *34:11 *34:19 11.7657 
5 *34:19 *34:21 15 
6 *34:21 *34:25 35.3414 
7 *34:25 *229:A 23 
8 *34:21 *34:37 19.4329 
9 *34:37 *201:A2 23 
10 *34:37 *34:44 7.66429 
11 *34:44 *34:49 32.61 
12 *34:49 *205:A2 23 
13 *34:44 *208:B 26.5007 
14 *34:19 *202:B 23 
15 *34:11 *213:A2 23 
16 *34:10 *34:72 3.72857 
17 *34:72 *212:A2 23 
18 *34:72 *34:84 38.9279 
19 *34:84 *200:A 23 
*END

*D_NET *35 0.00606485
*CONN
*I *230:A I *D sky130_fd_sc_hd__buf_2
*I *205:B1 I *D sky130_fd_sc_hd__a21o_1
*I *201:B1 I *D sky130_fd_sc_hd__o21ai_1
*I *202:C I *D sky130_fd_sc_hd__or3_1
*I *208:C I *D sky130_fd_sc_hd__and3_1
*I *223:Q O *D sky130_fd_sc_hd__dfxtp_1
*CAP
1 *230:A 0
2 *205:B1 0
3 *201:B1 0
4 *202:C 0.000160466
5 *208:C 0.00027454
6 *223:Q 0
7 *35:48 0.000691495
8 *35:25 0.00059646
9 *35:20 0.000806858
10 *35:6 0.00092132
11 *35:5 0.000967411
12 *35:20 *210:A1 1.21972e-05
13 *209:A2 *208:C 0.000141344
14 *210:A2 *35:20 9.79925e-05
15 *5:7 *35:48 6.86239e-05
16 *16:6 *35:6 2.78373e-05
17 *21:5 *202:C 2.95423e-05
18 *25:23 *35:6 0
19 *25:23 *35:20 9.79925e-05
20 *25:23 *35:48 0
21 *30:26 *208:C 0.000294888
22 *30:26 *35:6 0.000155302
23 *30:35 *35:6 0.000168669
24 *32:57 *35:20 0.000319076
25 *32:57 *35:25 2.48025e-05
26 *33:30 *208:C 8.49347e-05
27 *34:19 *202:C 3.26241e-05
28 *34:37 *202:C 9.04798e-05
*RES
1 *223:Q *35:5 38 
2 *35:5 *35:6 6.13143 
3 *35:6 *208:C 44.38 
4 *35:6 *35:20 22.3121 
5 *35:20 *35:25 22.395 
6 *35:25 *202:C 41.5836 
7 *35:25 *201:B1 38 
8 *35:20 *205:B1 23 
9 *35:5 *35:48 27.9257 
10 *35:48 *230:A 23 
*END

*D_NET *36 0.0101979
*CONN
*I *210:A1 I *D sky130_fd_sc_hd__o21a_1
*I *209:A1 I *D sky130_fd_sc_hd__a21oi_1
*I *231:A I *D sky130_fd_sc_hd__buf_2
*I *206:A1 I *D sky130_fd_sc_hd__o21ba_1
*I *207:A1 I *D sky130_fd_sc_hd__a21boi_1
*I *224:A I *D sky130_fd_sc_hd__clkbuf_1
*I *220:Q O *D sky130_fd_sc_hd__dfxtp_1
*CAP
1 *210:A1 0.000548931
2 *209:A1 0.000572114
3 *231:A 0
4 *206:A1 2.13128e-05
5 *207:A1 0
6 *224:A 0.000437838
7 *220:Q 0
8 *36:39 0.00109017
9 *36:34 0.00182974
10 *36:32 0.000984036
11 *36:9 0.000845832
12 *36:7 0.00142759
13 *36:4 0.00126593
14 *200:B *210:A1 0.000318666
15 *206:A2 *206:A1 5.47983e-06
16 *206:A2 *36:9 8.87641e-05
17 *207:A2 *224:A 5.82853e-05
18 *207:A2 *36:9 0.000186875
19 *207:B1_N *36:9 0.000280787
20 *210:A2 *210:A1 2.95423e-05
21 *210:B1 *210:A1 0.000103405
22 *220:D *36:7 5.99746e-05
23 *13:8 *210:A1 1.09349e-05
24 *13:8 *36:32 1.94812e-05
25 *35:20 *210:A1 1.21972e-05
*RES
1 *220:Q *36:4 23 
2 *36:4 *36:7 12.0764 
3 *36:7 *36:9 8.24429 
4 *36:9 *224:A 30.3121 
5 *36:9 *207:A1 23 
6 *36:7 *206:A1 23.4971 
7 *36:4 *36:32 19.1843 
8 *36:32 *36:34 3.31429 
9 *36:34 *36:39 35.3 
10 *36:39 *231:A 23 
11 *36:34 *209:A1 44.815 
12 *36:32 *210:A1 47.6943 
*END

*D_NET *37 0.000362596
*CONN
*I *232:A I *D sky130_fd_sc_hd__buf_2
*I *217:Q O *D sky130_fd_sc_hd__dfxtp_1
*CAP
1 *232:A 4.23615e-05
2 *217:Q 8.11586e-05
3 *37:6 0.00012352
4 gray_count[0] *37:6 8.85189e-05
5 *33:75 *37:6 2.70366e-05
*RES
1 *217:Q *37:6 39.9057 
2 *37:6 *232:A 38.6214 
*END

*D_NET *38 0.0009093
*CONN
*I *233:A I *D sky130_fd_sc_hd__buf_2
*I *218:Q O *D sky130_fd_sc_hd__dfxtp_1
*CAP
1 *233:A 0
2 *218:Q 0.00045465
3 *38:8 0.00045465
*RES
1 *218:Q *38:8 46.5136 
2 *38:8 *233:A 38 
*END

*D_NET *39 0.000740939
*CONN
*I *234:A I *D sky130_fd_sc_hd__buf_2
*I *219:Q O *D sky130_fd_sc_hd__dfxtp_1
*CAP
1 *234:A 0
2 *219:Q 0.000176878
3 *39:6 0.000176878
4 *31:11 *39:6 0.000387183
*RES
1 *219:Q *39:6 43.075 
2 *39:6 *234:A 38 
*END
