*SPEF "ieee 1481-1999"
*DESIGN "iiitb_gray_cntr"
*DATE "11:11:11 Fri 11 11, 1111"
*VENDOR "OpenRCX"
*PROGRAM "Parallel Extraction"
*VERSION "1.0"
*DESIGN_FLOW "NAME_SCOPE LOCAL" "PIN_CAP NONE"
*DIVIDER /
*DELIMITER :
*BUS_DELIMITER []
*T_UNIT 1 NS
*C_UNIT 1 PF
*R_UNIT 1 OHM
*L_UNIT 1 HENRY

*NAME_MAP
*3 bcd_value[0]
*4 bcd_value[1]
*5 bcd_value[2]
*6 bcd_value[3]
*7 clk
*8 gray_count[0]
*9 gray_count[1]
*10 gray_count[2]
*11 gray_count[3]
*12 rst
*13 _00_
*14 _01_
*15 _02_
*16 _03_
*17 _04_
*18 _05_
*19 _06_
*20 _07_
*21 _08_
*22 _09_
*23 _10_
*24 _11_
*25 _12_
*26 _13_
*27 _14_
*28 _15_
*29 _16_
*30 net1
*31 net10
*32 net2
*33 net3
*34 net4
*35 net5
*36 net6
*37 net7
*38 net8
*39 net9
*40 FILLER_0_21
*41 FILLER_0_27
*42 FILLER_0_29
*43 FILLER_0_3
*44 FILLER_0_35
*45 FILLER_0_47
*46 FILLER_0_55
*47 FILLER_0_57
*48 FILLER_0_69
*49 FILLER_0_77
*50 FILLER_0_9
*51 FILLER_10_15
*52 FILLER_10_27
*53 FILLER_10_29
*54 FILLER_10_3
*55 FILLER_10_33
*56 FILLER_10_37
*57 FILLER_10_44
*58 FILLER_10_56
*59 FILLER_10_68
*60 FILLER_10_72
*61 FILLER_10_77
*62 FILLER_11_21
*63 FILLER_11_3
*64 FILLER_11_33
*65 FILLER_11_45
*66 FILLER_11_53
*67 FILLER_11_57
*68 FILLER_11_69
*69 FILLER_11_77
*70 FILLER_11_9
*71 FILLER_12_21
*72 FILLER_12_27
*73 FILLER_12_29
*74 FILLER_12_3
*75 FILLER_12_41
*76 FILLER_12_53
*77 FILLER_12_57
*78 FILLER_12_63
*79 FILLER_12_71
*80 FILLER_12_77
*81 FILLER_12_9
*82 FILLER_1_15
*83 FILLER_1_27
*84 FILLER_1_3
*85 FILLER_1_39
*86 FILLER_1_51
*87 FILLER_1_55
*88 FILLER_1_57
*89 FILLER_1_69
*90 FILLER_1_77
*91 FILLER_2_15
*92 FILLER_2_27
*93 FILLER_2_29
*94 FILLER_2_3
*95 FILLER_2_41
*96 FILLER_2_53
*97 FILLER_2_65
*98 FILLER_2_77
*99 FILLER_3_15
*100 FILLER_3_19
*101 FILLER_3_3
*102 FILLER_3_36
*103 FILLER_3_48
*104 FILLER_3_57
*105 FILLER_3_69
*106 FILLER_3_77
*107 FILLER_4_21
*108 FILLER_4_26
*109 FILLER_4_29
*110 FILLER_4_3
*111 FILLER_4_35
*112 FILLER_4_53
*113 FILLER_4_60
*114 FILLER_4_72
*115 FILLER_4_78
*116 FILLER_4_9
*117 FILLER_5_15
*118 FILLER_5_19
*119 FILLER_5_25
*120 FILLER_5_3
*121 FILLER_5_36
*122 FILLER_5_46
*123 FILLER_5_54
*124 FILLER_5_57
*125 FILLER_5_75
*126 FILLER_6_15
*127 FILLER_6_21
*128 FILLER_6_26
*129 FILLER_6_29
*130 FILLER_6_3
*131 FILLER_6_37
*132 FILLER_6_46
*133 FILLER_6_54
*134 FILLER_6_66
*135 FILLER_6_78
*136 FILLER_7_15
*137 FILLER_7_27
*138 FILLER_7_3
*139 FILLER_7_31
*140 FILLER_7_38
*141 FILLER_7_52
*142 FILLER_7_57
*143 FILLER_7_62
*144 FILLER_7_74
*145 FILLER_7_78
*146 FILLER_8_26
*147 FILLER_8_29
*148 FILLER_8_3
*149 FILLER_8_39
*150 FILLER_8_63
*151 FILLER_8_75
*152 FILLER_8_8
*153 FILLER_9_21
*154 FILLER_9_3
*155 FILLER_9_49
*156 FILLER_9_55
*157 FILLER_9_57
*158 FILLER_9_75
*159 PHY_0
*160 PHY_1
*161 PHY_10
*162 PHY_11
*163 PHY_12
*164 PHY_13
*165 PHY_14
*166 PHY_15
*167 PHY_16
*168 PHY_17
*169 PHY_18
*170 PHY_19
*171 PHY_2
*172 PHY_20
*173 PHY_21
*174 PHY_22
*175 PHY_23
*176 PHY_24
*177 PHY_25
*178 PHY_3
*179 PHY_4
*180 PHY_5
*181 PHY_6
*182 PHY_7
*183 PHY_8
*184 PHY_9
*185 TAP_26
*186 TAP_27
*187 TAP_28
*188 TAP_29
*189 TAP_30
*190 TAP_31
*191 TAP_32
*192 TAP_33
*193 TAP_34
*194 TAP_35
*195 TAP_36
*196 TAP_37
*197 TAP_38
*198 TAP_39
*199 TAP_40
*200 _17_
*201 _18_
*202 _19_
*203 _20_
*204 _21_
*205 _22_
*206 _23_
*207 _24_
*208 _25_
*209 _26_
*210 _27_
*211 _28_
*212 _29_
*213 _30_
*214 _31_
*215 _32_
*216 _33_
*217 _34_
*218 _35_
*219 _36_
*220 _37_
*221 _38_
*222 _39_
*223 _40_
*224 _41_
*225 input1
*226 input2
*227 output10
*228 output3
*229 output4
*230 output5
*231 output6
*232 output7
*233 output8
*234 output9

*PORTS
bcd_value[0] O
bcd_value[1] O
bcd_value[2] O
bcd_value[3] O
clk I
gray_count[0] O
gray_count[1] O
gray_count[2] O
gray_count[3] O
rst I

*D_NET *3 0.00195291
*CONN
*P bcd_value[0] O
*I *228:X O *D sky130_fd_sc_hd__buf_2
*CAP
1 bcd_value[0] 0.000967217
2 *228:X 0.000967217
3 bcd_value[0] *228:A 1.84776e-05
*RES
1 *228:X bcd_value[0] 30.7643 
*END

*D_NET *4 0.0016625
*CONN
*P bcd_value[1] O
*I *229:X O *D sky130_fd_sc_hd__buf_2
*CAP
1 bcd_value[1] 0.000831252
2 *229:X 0.000831252
*RES
1 *229:X bcd_value[1] 28.2107 
*END

*D_NET *5 0.00159597
*CONN
*P bcd_value[2] O
*I *230:X O *D sky130_fd_sc_hd__buf_2
*CAP
1 bcd_value[2] 0.000763597
2 *230:X 0.000763597
3 bcd_value[2] *230:A 6.87754e-05
*RES
1 *230:X bcd_value[2] 27.4786 
*END

*D_NET *6 0.00094859
*CONN
*P bcd_value[3] O
*I *231:X O *D sky130_fd_sc_hd__buf_2
*CAP
1 bcd_value[3] 0.000474295
2 *231:X 0.000474295
*RES
1 *231:X bcd_value[3] 22.7107 
*END

*D_NET *7 0.000764895
*CONN
*P clk I
*I *225:A I *D sky130_fd_sc_hd__clkbuf_2
*CAP
1 clk 0.000382448
2 *225:A 0.000382448
*RES
1 clk *225:A 19.8569 
*END

*D_NET *8 0.00114935
*CONN
*P gray_count[0] O
*I *232:X O *D sky130_fd_sc_hd__buf_2
*CAP
1 gray_count[0] 0.000476948
2 *232:X 0.000476948
3 gray_count[0] *228:A 0.000115369
4 gray_count[0] *232:A 8.00806e-05
*RES
1 *232:X gray_count[0] 19.7539 
*END

*D_NET *9 0.000883924
*CONN
*P gray_count[1] O
*I *233:X O *D sky130_fd_sc_hd__buf_2
*CAP
1 gray_count[1] 0.000441962
2 *233:X 0.000441962
*RES
1 *233:X gray_count[1] 21.6393 
*END

*D_NET *10 0.000859255
*CONN
*P gray_count[2] O
*I *234:X O *D sky130_fd_sc_hd__buf_2
*CAP
1 gray_count[2] 0.000411989
2 *234:X 0.000411989
3 gray_count[2] *227:A 3.52759e-05
*RES
1 *234:X gray_count[2] 19.6254 
*END

*D_NET *11 0.00133481
*CONN
*P gray_count[3] O
*I *227:X O *D sky130_fd_sc_hd__buf_2
*CAP
1 gray_count[3] 0.000658162
2 *227:X 0.000658162
3 gray_count[3] *227:A 1.84865e-05
*RES
1 *227:X gray_count[3] 25.3 
*END

*D_NET *12 0.000872486
*CONN
*P rst I
*I *226:A I *D sky130_fd_sc_hd__clkbuf_2
*CAP
1 rst 0.000436243
2 *226:A 0.000436243
*RES
1 rst *226:A 19.2498 
*END

*D_NET *13 0.000701668
*CONN
*I *217:D I *D sky130_fd_sc_hd__dfxtp_1
*I *200:Y O *D sky130_fd_sc_hd__nor2_1
*CAP
1 *217:D 0.000324171
2 *200:Y 0.000324171
3 *217:D *200:B 2.07878e-05
4 *217:D *210:A1 1.15659e-05
5 *217:D *36:32 2.09722e-05
*RES
1 *200:Y *217:D 33.0866 
*END

*D_NET *14 0.00023804
*CONN
*I *218:D I *D sky130_fd_sc_hd__dfxtp_1
*I *204:X O *D sky130_fd_sc_hd__clkbuf_1
*CAP
1 *218:D 6.73011e-05
2 *204:X 6.73011e-05
3 *218:D *229:A 0.000103437
*RES
1 *204:X *218:D 29.1045 
*END

*D_NET *15 0.000680248
*CONN
*I *219:D I *D sky130_fd_sc_hd__dfxtp_1
*I *207:Y O *D sky130_fd_sc_hd__a21boi_1
*CAP
1 *219:D 0.000269157
2 *207:Y 0.000269157
3 *219:D *219:CLK 0.000141935
*RES
1 *207:Y *219:D 32.6536 
*END

*D_NET *16 0.00029026
*CONN
*I *220:D I *D sky130_fd_sc_hd__dfxtp_1
*I *210:X O *D sky130_fd_sc_hd__o21a_1
*CAP
1 *220:D 0.000100887
2 *210:X 0.000100887
3 *220:D *35:6 2.92927e-05
4 *220:D *36:7 5.91935e-05
*RES
1 *210:X *220:D 29.5152 
*END

*D_NET *17 0.000519983
*CONN
*I *221:D I *D sky130_fd_sc_hd__dfxtp_1
*I *211:Y O *D sky130_fd_sc_hd__nor2_1
*CAP
1 *221:D 0.000172759
2 *211:Y 0.000172759
3 *221:D *221:CLK 6.2379e-05
4 *221:D *32:11 1.59373e-05
5 *221:D *32:22 7.20217e-06
6 *221:D *33:9 8.89464e-05
*RES
1 *211:Y *221:D 30.9393 
*END

*D_NET *18 0.000412571
*CONN
*I *222:D I *D sky130_fd_sc_hd__dfxtp_2
*I *213:X O *D sky130_fd_sc_hd__o21a_1
*CAP
1 *222:D 0.000170058
2 *213:X 0.000170058
3 *222:D *30:23 1.74503e-05
4 *222:D *34:19 5.50052e-05
*RES
1 *213:X *222:D 30.2473 
*END

*D_NET *19 0.00034535
*CONN
*I *223:D I *D sky130_fd_sc_hd__dfxtp_1
*I *216:X O *D sky130_fd_sc_hd__clkbuf_1
*CAP
1 *223:D 0.000111388
2 *216:X 0.000111388
3 *223:D *216:A 0.00010311
4 *223:D *30:38 1.94632e-05
*RES
1 *216:X *223:D 29.7473 
*END

*D_NET *20 0.000950307
*CONN
*I *203:B I *D sky130_fd_sc_hd__and3b_1
*I *201:Y O *D sky130_fd_sc_hd__o21ai_1
*CAP
1 *203:B 0.000339947
2 *201:Y 0.000339947
3 *203:B *33:36 0.000270414
*RES
1 *201:Y *203:B 32.7429 
*END

*D_NET *21 0.000852155
*CONN
*I *203:C I *D sky130_fd_sc_hd__and3b_1
*I *202:X O *D sky130_fd_sc_hd__or3_1
*CAP
1 *203:C 0.000367803
2 *202:X 0.000367803
3 *203:C *202:C 2.85234e-05
4 *203:C *34:19 8.80255e-05
*RES
1 *202:X *203:C 23.2429 
*END

*D_NET *22 0.000660359
*CONN
*I *204:A I *D sky130_fd_sc_hd__clkbuf_1
*I *203:X O *D sky130_fd_sc_hd__and3b_1
*CAP
1 *204:A 0.000210135
2 *203:X 0.000210135
3 *204:A *229:A 5.1601e-05
4 *204:A *34:19 0.000184815
5 *204:A *34:37 3.67279e-06
*RES
1 *203:X *204:A 31.3143 
*END

*D_NET *23 0.00212595
*CONN
*I *206:A2 I *D sky130_fd_sc_hd__o21ba_1
*I *207:A2 I *D sky130_fd_sc_hd__a21boi_1
*I *215:A I *D sky130_fd_sc_hd__and2_1
*I *205:X O *D sky130_fd_sc_hd__a21o_1
*CAP
1 *206:A2 0.000110201
2 *207:A2 0.000214298
3 *215:A 0.000188521
4 *205:X 0
5 *23:21 0.00041229
6 *23:5 0.000276312
7 *206:A2 *206:A1 5.38444e-06
8 *206:A2 *36:9 8.59882e-05
9 *207:A2 *207:B1_N 0.000273752
10 *207:A2 *224:A 5.66971e-05
11 *207:A2 *36:9 0.000181424
12 *215:A *205:A1 1.23589e-05
13 *215:A *206:B1_N 1.00332e-05
14 *215:A *216:A 8.14498e-05
15 *215:A *33:36 3.08664e-05
16 *215:A *34:44 5.49489e-05
17 *23:21 *206:B1_N 0.000124869
18 *23:21 *216:A 6.55528e-06
*RES
1 *205:X *23:5 13.8 
2 *23:5 *215:A 18.1571 
3 *23:5 *23:21 6.44643 
4 *23:21 *207:A2 14.9071 
5 *23:21 *206:A2 11.4964 
*END

*D_NET *24 0.000615769
*CONN
*I *207:B1_N I *D sky130_fd_sc_hd__a21boi_1
*I *206:X O *D sky130_fd_sc_hd__o21ba_1
*CAP
1 *207:B1_N 3.41327e-05
2 *206:X 3.41327e-05
3 *207:B1_N *36:9 0.000273752
4 *207:A2 *207:B1_N 0.000273752
*RES
1 *206:X *207:B1_N 21.1893 
*END

*D_NET *25 0.00217398
*CONN
*I *210:A2 I *D sky130_fd_sc_hd__o21a_1
*I *214:B I *D sky130_fd_sc_hd__nor2_1
*I *209:A2 I *D sky130_fd_sc_hd__a21oi_1
*I *208:X O *D sky130_fd_sc_hd__and3_1
*CAP
1 *210:A2 2.87512e-05
2 *214:B 0.000312609
3 *209:A2 0.000144643
4 *208:X 0
5 *25:17 0.000399247
6 *25:5 0.00020253
7 *209:A2 *208:C 0.000139331
8 *209:A2 *215:B 2.56395e-05
9 *209:A2 *30:26 4.37633e-05
10 *210:A2 *210:A1 2.85234e-05
11 *210:A2 *35:20 9.67754e-05
12 *214:B *214:A 2.82057e-05
13 *214:B *215:B 0.000504991
14 *214:B *230:A 0
15 *214:B *35:6 0
16 *214:B *35:20 9.67754e-05
17 *25:17 *215:B 4.42555e-05
18 *25:17 *30:26 7.7939e-05
*RES
1 *208:X *25:5 13.8 
2 *25:5 *209:A2 17.0143 
3 *25:5 *25:17 6.44643 
4 *25:17 *214:B 26.3536 
5 *25:17 *210:A2 10.2464 
*END

*D_NET *26 0.000565867
*CONN
*I *210:B1 I *D sky130_fd_sc_hd__o21a_1
*I *209:Y O *D sky130_fd_sc_hd__a21oi_1
*CAP
1 *210:B1 0.000165359
2 *209:Y 0.000165359
3 *210:B1 *200:A 1.08847e-05
4 *210:B1 *200:B 0.000124869
5 *210:B1 *210:A1 9.93955e-05
*RES
1 *209:Y *210:B1 31.3143 
*END

*D_NET *27 0.000733948
*CONN
*I *213:B1 I *D sky130_fd_sc_hd__o21a_1
*I *212:Y O *D sky130_fd_sc_hd__a21oi_1
*CAP
1 *213:B1 0.000123892
2 *212:Y 0.000123892
3 *213:B1 *212:B1 1.32056e-05
4 *213:B1 *32:40 6.18886e-05
5 *213:B1 *33:13 8.39104e-05
6 *213:B1 *34:11 0.000180202
7 *213:B1 *34:19 4.91288e-05
8 *213:B1 *34:72 9.78292e-05
*RES
1 *212:Y *213:B1 22.8679 
*END

*D_NET *28 0.00246048
*CONN
*I *215:B I *D sky130_fd_sc_hd__and2_1
*I *214:Y O *D sky130_fd_sc_hd__nor2_1
*CAP
1 *215:B 0.000313439
2 *214:Y 0.000313439
3 *215:B *208:B 0.000112264
4 *215:B *214:A 0.000456863
5 *215:B *32:51 0.000266962
6 *215:B *33:30 2.24804e-05
7 *215:B *33:32 0.000226946
8 *215:B *33:36 9.84673e-05
9 *215:B *34:44 7.47328e-05
10 *209:A2 *215:B 2.56395e-05
11 *214:B *215:B 0.000504991
12 *25:17 *215:B 4.42555e-05
*RES
1 *214:Y *215:B 40.2429 
*END

*D_NET *29 0.00148134
*CONN
*I *216:A I *D sky130_fd_sc_hd__clkbuf_1
*I *215:X O *D sky130_fd_sc_hd__and2_1
*CAP
1 *216:A 0.000512476
2 *215:X 0.000512476
3 *216:A *205:A1 0.000150917
4 *216:A *206:B1_N 5.93614e-05
5 *216:A *214:A 0
6 *216:A *34:44 5.49995e-05
7 *215:A *216:A 8.14498e-05
8 *223:D *216:A 0.00010311
9 *23:21 *216:A 6.55528e-06
*RES
1 *215:X *216:A 37.6 
*END

*D_NET *30 0.00837196
*CONN
*I *221:CLK I *D sky130_fd_sc_hd__dfxtp_1
*I *217:CLK I *D sky130_fd_sc_hd__dfxtp_1
*I *223:CLK I *D sky130_fd_sc_hd__dfxtp_1
*I *219:CLK I *D sky130_fd_sc_hd__dfxtp_1
*I *220:CLK I *D sky130_fd_sc_hd__dfxtp_1
*I *222:CLK I *D sky130_fd_sc_hd__dfxtp_2
*I *218:CLK I *D sky130_fd_sc_hd__dfxtp_1
*I *225:X O *D sky130_fd_sc_hd__clkbuf_2
*CAP
1 *221:CLK 0.000406604
2 *217:CLK 0.000344659
3 *223:CLK 0
4 *219:CLK 0.000298764
5 *220:CLK 0
6 *222:CLK 2.22847e-05
7 *218:CLK 8.37771e-05
8 *225:X 0.000334412
9 *30:38 0.000856297
10 *30:35 0.000980655
11 *30:26 0.000498193
12 *30:23 0.00110061
13 *30:15 0.000738256
14 *30:5 0.000859882
15 *218:CLK *229:A 7.7939e-05
16 *221:CLK *211:A 0.000445621
17 *221:CLK *32:11 1.00477e-05
18 *221:CLK *32:22 2.12005e-05
19 *221:CLK *33:9 2.84109e-05
20 *30:23 *211:A 9.84673e-05
21 *30:26 *208:C 0.000264703
22 *30:26 *211:A 0.000112203
23 *30:26 *33:30 5.83677e-05
24 *30:26 *34:10 7.74068e-05
25 *30:26 *35:6 0.000139362
26 *30:35 *35:6 0.00015091
27 *209:A2 *30:26 4.37633e-05
28 *219:D *219:CLK 0.000141935
29 *221:D *221:CLK 6.2379e-05
30 *222:D *30:23 1.74503e-05
31 *223:D *30:38 1.94632e-05
32 *25:17 *30:26 7.7939e-05
*RES
1 *225:X *30:5 14.3536 
2 *30:5 *218:CLK 20.2464 
3 *30:5 *30:15 6.69643 
4 *30:15 *222:CLK 9.72857 
5 *30:15 *30:23 4.64286 
6 *30:23 *30:26 14.6429 
7 *30:26 *220:CLK 13.8 
8 *30:26 *30:35 6.44643 
9 *30:35 *30:38 6.60714 
10 *30:38 *219:CLK 14.7643 
11 *30:38 *223:CLK 9.3 
12 *30:35 *217:CLK 15.0857 
13 *30:23 *221:CLK 26.3357 
*END

*D_NET *31 0.00150467
*CONN
*I *227:A I *D sky130_fd_sc_hd__buf_2
*I *224:X O *D sky130_fd_sc_hd__clkbuf_1
*CAP
1 *227:A 0.000551792
2 *224:X 0.000551792
3 *227:A *234:A 0.000347318
4 gray_count[2] *227:A 3.52759e-05
5 gray_count[3] *227:A 1.84865e-05
*RES
1 *224:X *227:A 39.1179 
*END

*D_NET *32 0.0089201
*CONN
*I *200:B I *D sky130_fd_sc_hd__nor2_1
*I *209:B1 I *D sky130_fd_sc_hd__a21oi_1
*I *214:A I *D sky130_fd_sc_hd__nor2_1
*I *206:B1_N I *D sky130_fd_sc_hd__o21ba_1
*I *203:A_N I *D sky130_fd_sc_hd__and3b_1
*I *212:B1 I *D sky130_fd_sc_hd__a21oi_1
*I *211:B I *D sky130_fd_sc_hd__nor2_1
*I *226:X O *D sky130_fd_sc_hd__clkbuf_2
*CAP
1 *200:B 0.000211281
2 *209:B1 0
3 *214:A 0.000257745
4 *206:B1_N 0.000294564
5 *203:A_N 0.000228877
6 *212:B1 9.73892e-05
7 *211:B 0
8 *226:X 0.000793397
9 *32:71 0.000279166
10 *32:51 0.000820383
11 *32:40 0.00085828
12 *32:37 0.000499261
13 *32:22 0.00044715
14 *32:11 0.00107311
15 *200:B *200:A 0.000378537
16 *200:B *210:A1 0.000312767
17 *203:A_N *34:19 7.24164e-05
18 *206:B1_N *35:20 0.000312898
19 *206:B1_N *35:25 2.37306e-05
20 *212:B1 *33:13 5.20669e-05
21 *212:B1 *34:72 5.73411e-05
22 *32:22 *211:A 0.000186922
23 *32:37 *200:A 2.41972e-05
24 *32:40 *33:9 5.49489e-05
25 *32:40 *33:13 0.000312852
26 *32:40 *34:19 3.01245e-06
27 *32:71 *200:A 4.63699e-05
28 *210:B1 *200:B 0.000124869
29 *213:B1 *212:B1 1.32056e-05
30 *213:B1 *32:40 6.18886e-05
31 *214:B *214:A 2.82057e-05
32 *215:A *206:B1_N 1.00332e-05
33 *215:B *214:A 0.000456863
34 *215:B *32:51 0.000266962
35 *216:A *206:B1_N 5.93614e-05
36 *216:A *214:A 0
37 *217:D *200:B 2.07878e-05
38 *221:CLK *32:11 1.00477e-05
39 *221:CLK *32:22 2.12005e-05
40 *221:D *32:11 1.59373e-05
41 *221:D *32:22 7.20217e-06
42 *23:21 *206:B1_N 0.000124869
*RES
1 *226:X *32:11 31.1036 
2 *32:11 *211:B 9.3 
3 *32:11 *32:22 9.61607 
4 *32:22 *212:B1 15.9875 
5 *32:22 *32:37 1.1875 
6 *32:37 *32:40 9.55357 
7 *32:40 *203:A_N 12.6214 
8 *32:40 *32:51 9.48214 
9 *32:51 *206:B1_N 27.8536 
10 *32:51 *214:A 20.3 
11 *32:37 *32:71 1.33929 
12 *32:71 *209:B1 13.8 
13 *32:71 *200:B 20.7464 
*END

*D_NET *33 0.00917156
*CONN
*I *228:A I *D sky130_fd_sc_hd__buf_2
*I *212:A1 I *D sky130_fd_sc_hd__a21oi_1
*I *213:A1 I *D sky130_fd_sc_hd__o21a_1
*I *208:A I *D sky130_fd_sc_hd__and3_1
*I *205:A1 I *D sky130_fd_sc_hd__a21o_1
*I *201:A1 I *D sky130_fd_sc_hd__o21ai_1
*I *202:A I *D sky130_fd_sc_hd__or3_1
*I *211:A I *D sky130_fd_sc_hd__nor2_1
*I *221:Q O *D sky130_fd_sc_hd__dfxtp_1
*CAP
1 *228:A 0.00104083
2 *212:A1 0
3 *213:A1 0
4 *208:A 0
5 *205:A1 0.000114426
6 *201:A1 0
7 *202:A 0.000111836
8 *211:A 0.000285682
9 *221:Q 0
10 *33:36 0.000375088
11 *33:32 0.000484515
12 *33:30 0.000357405
13 *33:15 0.00053625
14 *33:13 9.23685e-05
15 *33:9 0.000787493
16 *33:4 0.00173596
17 *202:A *34:37 0.000172285
18 *205:A1 *205:A2 0.000172228
19 *211:A *34:10 5.26625e-05
20 *228:A *232:A 2.58997e-05
21 *33:9 *200:A 9.67754e-05
22 *33:9 *34:72 6.45847e-06
23 *33:30 *208:B 1.16543e-05
24 *33:30 *208:C 8.3348e-05
25 *33:36 *34:44 0.000159375
26 bcd_value[0] *228:A 1.84776e-05
27 gray_count[0] *228:A 0.000115369
28 *203:B *33:36 0.000270414
29 *212:B1 *33:13 5.20669e-05
30 *213:B1 *33:13 8.39104e-05
31 *215:A *205:A1 1.23589e-05
32 *215:A *33:36 3.08664e-05
33 *215:B *33:30 2.24804e-05
34 *215:B *33:32 0.000226946
35 *215:B *33:36 9.84673e-05
36 *216:A *205:A1 0.000150917
37 *221:CLK *211:A 0.000445621
38 *221:CLK *33:9 2.84109e-05
39 *221:D *33:9 8.89464e-05
40 *30:23 *211:A 9.84673e-05
41 *30:26 *211:A 0.000112203
42 *30:26 *33:30 5.83677e-05
43 *32:22 *211:A 0.000186922
44 *32:40 *33:9 5.49489e-05
45 *32:40 *33:13 0.000312852
*RES
1 *221:Q *33:4 9.3 
2 *33:4 *33:9 9.71429 
3 *33:9 *33:13 3.42857 
4 *33:13 *33:15 4.5 
5 *33:15 *211:A 21.7107 
6 *33:15 *33:30 8.33929 
7 *33:30 *33:32 2.17857 
8 *33:32 *33:36 6.30357 
9 *33:36 *202:A 20.55 
10 *33:36 *201:A1 9.3 
11 *33:32 *205:A1 21.4607 
12 *33:30 *208:A 9.3 
13 *33:13 *213:A1 9.3 
14 *33:9 *212:A1 9.3 
15 *33:4 *228:A 36.8179 
*END

*D_NET *34 0.00873459
*CONN
*I *200:A I *D sky130_fd_sc_hd__nor2_1
*I *212:A2 I *D sky130_fd_sc_hd__a21oi_1
*I *213:A2 I *D sky130_fd_sc_hd__o21a_1
*I *202:B I *D sky130_fd_sc_hd__or3_1
*I *208:B I *D sky130_fd_sc_hd__and3_1
*I *205:A2 I *D sky130_fd_sc_hd__a21o_1
*I *201:A2 I *D sky130_fd_sc_hd__o21ai_1
*I *229:A I *D sky130_fd_sc_hd__buf_2
*I *222:Q O *D sky130_fd_sc_hd__dfxtp_2
*CAP
1 *200:A 0.000344313
2 *212:A2 0
3 *213:A2 0
4 *202:B 0
5 *208:B 0.000163243
6 *205:A2 9.34657e-05
7 *201:A2 0
8 *229:A 0.00093812
9 *222:Q 0.000151804
10 *34:72 0.000560871
11 *34:44 0.0005921
12 *34:37 0.000490209
13 *34:21 0.00109294
14 *34:19 0.000519724
15 *34:11 0.00064523
16 *34:10 0.000493869
17 *34:19 *202:C 3.11088e-05
18 *34:37 *202:C 8.7392e-05
19 *200:B *200:A 0.000378537
20 *202:A *34:37 0.000172285
21 *203:A_N *34:19 7.24164e-05
22 *203:C *34:19 8.80255e-05
23 *204:A *229:A 5.1601e-05
24 *204:A *34:19 0.000184815
25 *204:A *34:37 3.67279e-06
26 *205:A1 *205:A2 0.000172228
27 *210:B1 *200:A 1.08847e-05
28 *211:A *34:10 5.26625e-05
29 *212:B1 *34:72 5.73411e-05
30 *213:B1 *34:11 0.000180202
31 *213:B1 *34:19 4.91288e-05
32 *213:B1 *34:72 9.78292e-05
33 *215:A *34:44 5.49489e-05
34 *215:B *208:B 0.000112264
35 *215:B *34:44 7.47328e-05
36 *216:A *34:44 5.49995e-05
37 *218:CLK *229:A 7.7939e-05
38 *218:D *229:A 0.000103437
39 *222:D *34:19 5.50052e-05
40 *30:26 *34:10 7.74068e-05
41 *32:37 *200:A 2.41972e-05
42 *32:40 *34:19 3.01245e-06
43 *32:71 *200:A 4.63699e-05
44 *33:9 *200:A 9.67754e-05
45 *33:9 *34:72 6.45847e-06
46 *33:30 *208:B 1.16543e-05
47 *33:36 *34:44 0.000159375
*RES
1 *222:Q *34:10 20.6929 
2 *34:10 *34:11 1.76786 
3 *34:11 *34:19 10.1429 
4 *34:19 *34:21 4.5 
5 *34:21 *229:A 31.3357 
6 *34:21 *34:37 8.32143 
7 *34:37 *201:A2 9.3 
8 *34:37 *34:44 6.60714 
9 *34:44 *205:A2 20.55 
10 *34:44 *208:B 12.3179 
11 *34:19 *202:B 9.3 
12 *34:11 *213:A2 9.3 
13 *34:10 *34:72 3.21429 
14 *34:72 *212:A2 9.3 
15 *34:72 *200:A 25.9964 
*END

*D_NET *35 0.00548777
*CONN
*I *230:A I *D sky130_fd_sc_hd__buf_2
*I *205:B1 I *D sky130_fd_sc_hd__a21o_1
*I *201:B1 I *D sky130_fd_sc_hd__o21ai_1
*I *202:C I *D sky130_fd_sc_hd__or3_1
*I *208:C I *D sky130_fd_sc_hd__and3_1
*I *223:Q O *D sky130_fd_sc_hd__dfxtp_1
*CAP
1 *230:A 0.000632476
2 *205:B1 0
3 *201:B1 0
4 *202:C 0.000136399
5 *208:C 0.000237545
6 *223:Q 0
7 *35:25 0.000527204
8 *35:20 0.000712435
9 *35:6 0.00080168
10 *35:5 0.00087498
11 *35:20 *210:A1 1.21258e-05
12 bcd_value[2] *230:A 6.87754e-05
13 *203:C *202:C 2.85234e-05
14 *206:B1_N *35:20 0.000312898
15 *206:B1_N *35:25 2.37306e-05
16 *209:A2 *208:C 0.000139331
17 *210:A2 *35:20 9.67754e-05
18 *214:B *230:A 0
19 *214:B *35:6 0
20 *214:B *35:20 9.67754e-05
21 *220:D *35:6 2.92927e-05
22 *30:26 *208:C 0.000264703
23 *30:26 *35:6 0.000139362
24 *30:35 *35:6 0.00015091
25 *33:30 *208:C 8.3348e-05
26 *34:19 *202:C 3.11088e-05
27 *34:37 *202:C 8.7392e-05
*RES
1 *223:Q *35:5 13.8 
2 *35:5 *35:6 5.28571 
3 *35:6 *208:C 19.3 
4 *35:6 *35:20 10.8036 
5 *35:20 *35:25 10.875 
6 *35:25 *202:C 16.8893 
7 *35:25 *201:B1 13.8 
8 *35:20 *205:B1 9.3 
9 *35:5 *230:A 24.9429 
*END

*D_NET *36 0.00942335
*CONN
*I *210:A1 I *D sky130_fd_sc_hd__o21a_1
*I *209:A1 I *D sky130_fd_sc_hd__a21oi_1
*I *231:A I *D sky130_fd_sc_hd__buf_2
*I *206:A1 I *D sky130_fd_sc_hd__o21ba_1
*I *207:A1 I *D sky130_fd_sc_hd__a21boi_1
*I *224:A I *D sky130_fd_sc_hd__clkbuf_1
*I *220:Q O *D sky130_fd_sc_hd__dfxtp_1
*CAP
1 *210:A1 0.000485245
2 *209:A1 0.000534902
3 *231:A 0.00100234
4 *206:A1 2.04856e-05
5 *207:A1 0
6 *224:A 0.000406657
7 *220:Q 0
8 *36:34 0.00169112
9 *36:32 0.000879131
10 *36:9 0.000772429
11 *36:7 0.00131475
12 *36:4 0.0011685
13 *200:B *210:A1 0.000312767
14 *206:A2 *206:A1 5.38444e-06
15 *206:A2 *36:9 8.59882e-05
16 *207:A2 *224:A 5.66971e-05
17 *207:A2 *36:9 0.000181424
18 *207:B1_N *36:9 0.000273752
19 *210:A2 *210:A1 2.85234e-05
20 *210:B1 *210:A1 9.93955e-05
21 *217:D *210:A1 1.15659e-05
22 *217:D *36:32 2.09722e-05
23 *220:D *36:7 5.91935e-05
24 *35:20 *210:A1 1.21258e-05
*RES
1 *220:Q *36:4 9.3 
2 *36:4 *36:7 10.4107 
3 *36:7 *36:9 7.10714 
4 *36:9 *224:A 15.6036 
5 *36:9 *207:A1 9.3 
6 *36:7 *206:A1 9.72857 
7 *36:4 *36:32 8.10714 
8 *36:32 *36:34 2.85714 
9 *36:34 *231:A 31.3 
10 *36:34 *209:A1 19.675 
11 *36:32 *210:A1 22.1571 
*END

*D_NET *37 0.000318823
*CONN
*I *232:A I *D sky130_fd_sc_hd__buf_2
*I *217:Q O *D sky130_fd_sc_hd__dfxtp_1
*CAP
1 *232:A 0.000106422
2 *217:Q 0.000106422
3 gray_count[0] *232:A 8.00806e-05
4 *228:A *232:A 2.58997e-05
*RES
1 *217:Q *232:A 29.7786 
*END

*D_NET *38 0.000839217
*CONN
*I *233:A I *D sky130_fd_sc_hd__buf_2
*I *218:Q O *D sky130_fd_sc_hd__dfxtp_1
*CAP
1 *233:A 0.000419608
2 *218:Q 0.000419608
*RES
1 *218:Q *233:A 34.9393 
*END

*D_NET *39 0.000663628
*CONN
*I *234:A I *D sky130_fd_sc_hd__buf_2
*I *219:Q O *D sky130_fd_sc_hd__dfxtp_1
*CAP
1 *234:A 0.000158155
2 *219:Q 0.000158155
3 *227:A *234:A 0.000347318
*RES
1 *219:Q *234:A 31.975 
*END
