*SPEF "ieee 1481-1999"
*DESIGN "iiitb_gray_cntr"
*DATE "11:11:11 Fri 11 11, 1111"
*VENDOR "OpenRCX"
*PROGRAM "Parallel Extraction"
*VERSION "1.0"
*DESIGN_FLOW "NAME_SCOPE LOCAL" "PIN_CAP NONE"
*DIVIDER /
*DELIMITER :
*BUS_DELIMITER []
*T_UNIT 1 NS
*C_UNIT 1 PF
*R_UNIT 1 OHM
*L_UNIT 1 HENRY

*NAME_MAP
*3 bcd_value[0]
*4 bcd_value[1]
*5 bcd_value[2]
*6 bcd_value[3]
*7 clk
*8 gray_count[0]
*9 gray_count[1]
*10 gray_count[2]
*11 gray_count[3]
*12 rst
*13 _00_
*14 _01_
*15 _02_
*16 _03_
*17 _04_
*18 _05_
*19 _06_
*20 _07_
*21 _08_
*22 _09_
*23 _10_
*24 _11_
*25 _12_
*26 _13_
*27 _14_
*28 _15_
*29 _16_
*30 net1
*31 net10
*32 net2
*33 net3
*34 net4
*35 net5
*36 net6
*37 net7
*38 net8
*39 net9
*40 FILLER_0_21
*41 FILLER_0_27
*42 FILLER_0_29
*43 FILLER_0_3
*44 FILLER_0_35
*45 FILLER_0_47
*46 FILLER_0_55
*47 FILLER_0_57
*48 FILLER_0_69
*49 FILLER_0_77
*50 FILLER_0_9
*51 FILLER_10_15
*52 FILLER_10_27
*53 FILLER_10_29
*54 FILLER_10_3
*55 FILLER_10_33
*56 FILLER_10_37
*57 FILLER_10_44
*58 FILLER_10_56
*59 FILLER_10_68
*60 FILLER_10_72
*61 FILLER_10_77
*62 FILLER_11_21
*63 FILLER_11_3
*64 FILLER_11_33
*65 FILLER_11_45
*66 FILLER_11_53
*67 FILLER_11_57
*68 FILLER_11_69
*69 FILLER_11_77
*70 FILLER_11_9
*71 FILLER_12_21
*72 FILLER_12_27
*73 FILLER_12_29
*74 FILLER_12_3
*75 FILLER_12_41
*76 FILLER_12_53
*77 FILLER_12_57
*78 FILLER_12_63
*79 FILLER_12_71
*80 FILLER_12_77
*81 FILLER_12_9
*82 FILLER_1_15
*83 FILLER_1_27
*84 FILLER_1_3
*85 FILLER_1_39
*86 FILLER_1_51
*87 FILLER_1_55
*88 FILLER_1_57
*89 FILLER_1_69
*90 FILLER_1_77
*91 FILLER_2_15
*92 FILLER_2_27
*93 FILLER_2_29
*94 FILLER_2_3
*95 FILLER_2_41
*96 FILLER_2_53
*97 FILLER_2_65
*98 FILLER_2_77
*99 FILLER_3_15
*100 FILLER_3_19
*101 FILLER_3_3
*102 FILLER_3_36
*103 FILLER_3_48
*104 FILLER_3_57
*105 FILLER_3_69
*106 FILLER_3_77
*107 FILLER_4_21
*108 FILLER_4_26
*109 FILLER_4_29
*110 FILLER_4_3
*111 FILLER_4_35
*112 FILLER_4_53
*113 FILLER_4_60
*114 FILLER_4_72
*115 FILLER_4_78
*116 FILLER_4_9
*117 FILLER_5_15
*118 FILLER_5_19
*119 FILLER_5_25
*120 FILLER_5_3
*121 FILLER_5_36
*122 FILLER_5_46
*123 FILLER_5_54
*124 FILLER_5_57
*125 FILLER_5_75
*126 FILLER_6_15
*127 FILLER_6_21
*128 FILLER_6_26
*129 FILLER_6_29
*130 FILLER_6_3
*131 FILLER_6_37
*132 FILLER_6_46
*133 FILLER_6_54
*134 FILLER_6_66
*135 FILLER_6_78
*136 FILLER_7_15
*137 FILLER_7_27
*138 FILLER_7_3
*139 FILLER_7_31
*140 FILLER_7_38
*141 FILLER_7_52
*142 FILLER_7_57
*143 FILLER_7_62
*144 FILLER_7_74
*145 FILLER_7_78
*146 FILLER_8_26
*147 FILLER_8_29
*148 FILLER_8_3
*149 FILLER_8_39
*150 FILLER_8_63
*151 FILLER_8_75
*152 FILLER_8_8
*153 FILLER_9_21
*154 FILLER_9_3
*155 FILLER_9_49
*156 FILLER_9_55
*157 FILLER_9_57
*158 FILLER_9_75
*159 PHY_0
*160 PHY_1
*161 PHY_10
*162 PHY_11
*163 PHY_12
*164 PHY_13
*165 PHY_14
*166 PHY_15
*167 PHY_16
*168 PHY_17
*169 PHY_18
*170 PHY_19
*171 PHY_2
*172 PHY_20
*173 PHY_21
*174 PHY_22
*175 PHY_23
*176 PHY_24
*177 PHY_25
*178 PHY_3
*179 PHY_4
*180 PHY_5
*181 PHY_6
*182 PHY_7
*183 PHY_8
*184 PHY_9
*185 TAP_26
*186 TAP_27
*187 TAP_28
*188 TAP_29
*189 TAP_30
*190 TAP_31
*191 TAP_32
*192 TAP_33
*193 TAP_34
*194 TAP_35
*195 TAP_36
*196 TAP_37
*197 TAP_38
*198 TAP_39
*199 TAP_40
*200 _17_
*201 _18_
*202 _19_
*203 _20_
*204 _21_
*205 _22_
*206 _23_
*207 _24_
*208 _25_
*209 _26_
*210 _27_
*211 _28_
*212 _29_
*213 _30_
*214 _31_
*215 _32_
*216 _33_
*217 _34_
*218 _35_
*219 _36_
*220 _37_
*221 _38_
*222 _39_
*223 _40_
*224 _41_
*225 input1
*226 input2
*227 output10
*228 output3
*229 output4
*230 output5
*231 output6
*232 output7
*233 output8
*234 output9

*PORTS
bcd_value[0] O
bcd_value[1] O
bcd_value[2] O
bcd_value[3] O
clk I
gray_count[0] O
gray_count[1] O
gray_count[2] O
gray_count[3] O
rst I

*D_NET *3 0.00180205
*CONN
*P bcd_value[0] O
*I *228:X O *D sky130_fd_sc_hd__buf_2
*CAP
1 bcd_value[0] 0.000892069
2 *228:X 0.000892069
3 bcd_value[0] *228:A 1.79098e-05
*RES
1 *228:X bcd_value[0] 17.85 
*END

*D_NET *4 0.00153546
*CONN
*P bcd_value[1] O
*I *229:X O *D sky130_fd_sc_hd__buf_2
*CAP
1 bcd_value[1] 0.000767732
2 *229:X 0.000767732
*RES
1 *229:X bcd_value[1] 15.705 
*END

*D_NET *5 0.00147517
*CONN
*P bcd_value[2] O
*I *230:X O *D sky130_fd_sc_hd__buf_2
*CAP
1 bcd_value[2] 0.000704722
2 *230:X 0.000704722
3 bcd_value[2] *230:A 6.57301e-05
*RES
1 *230:X bcd_value[2] 15.09 
*END

*D_NET *6 0.000882226
*CONN
*P bcd_value[3] O
*I *231:X O *D sky130_fd_sc_hd__buf_2
*CAP
1 bcd_value[3] 0.000441113
2 *231:X 0.000441113
*RES
1 *231:X bcd_value[3] 11.085 
*END

*D_NET *7 0.000714633
*CONN
*P clk I
*I *225:A I *D sky130_fd_sc_hd__clkbuf_2
*CAP
1 clk 0.000357317
2 *225:A 0.000357317
*RES
1 clk *225:A 6.29657 
*END

*D_NET *8 0.00103498
*CONN
*P gray_count[0] O
*I *232:X O *D sky130_fd_sc_hd__buf_2
*CAP
1 gray_count[0] 0.000427304
2 *232:X 0.000427304
3 gray_count[0] *228:A 0.000106344
4 gray_count[0] *232:A 7.4027e-05
*RES
1 *232:X gray_count[0] 6.2037 
*END

*D_NET *9 0.000817491
*CONN
*P gray_count[1] O
*I *233:X O *D sky130_fd_sc_hd__buf_2
*CAP
1 gray_count[1] 0.000408745
2 *233:X 0.000408745
*RES
1 *233:X gray_count[1] 10.185 
*END

*D_NET *10 0.000801963
*CONN
*P gray_count[2] O
*I *234:X O *D sky130_fd_sc_hd__buf_2
*CAP
1 gray_count[2] 0.000382526
2 *234:X 0.000382526
3 gray_count[2] *227:A 3.69116e-05
*RES
1 *234:X gray_count[2] 6.09983 
*END

*D_NET *11 0.00123192
*CONN
*P gray_count[3] O
*I *227:X O *D sky130_fd_sc_hd__buf_2
*CAP
1 gray_count[3] 0.000607002
2 *227:X 0.000607002
3 gray_count[3] *227:A 1.79174e-05
*RES
1 *227:X gray_count[3] 13.26 
*END

*D_NET *12 0.000794444
*CONN
*P rst I
*I *226:A I *D sky130_fd_sc_hd__clkbuf_2
*CAP
1 rst 0.000397222
2 *226:A 0.000397222
*RES
1 rst *226:A 5.78657 
*END

*D_NET *13 0.000639331
*CONN
*I *217:D I *D sky130_fd_sc_hd__dfxtp_1
*I *200:Y O *D sky130_fd_sc_hd__nor2_1
*CAP
1 *217:D 0.000292652
2 *200:Y 0.000292652
3 *217:D *200:B 1.9872e-05
4 *217:D *210:A1 1.18307e-05
5 *217:D *36:32 2.23253e-05
*RES
1 *200:Y *217:D 11.8088 
*END

*D_NET *14 0.000214013
*CONN
*I *218:D I *D sky130_fd_sc_hd__dfxtp_1
*I *204:X O *D sky130_fd_sc_hd__clkbuf_1
*CAP
1 *218:D 6.01144e-05
2 *204:X 6.01144e-05
3 *218:D *229:A 9.37846e-05
*RES
1 *204:X *218:D 8.46375 
*END

*D_NET *15 0.000620093
*CONN
*I *219:D I *D sky130_fd_sc_hd__dfxtp_1
*I *207:Y O *D sky130_fd_sc_hd__a21boi_1
*CAP
1 *219:D 0.000248638
2 *207:Y 0.000248638
3 *219:D *219:CLK 0.000122817
*RES
1 *207:Y *219:D 11.445 
*END

*D_NET *16 0.000259107
*CONN
*I *220:D I *D sky130_fd_sc_hd__dfxtp_1
*I *210:X O *D sky130_fd_sc_hd__o21a_1
*CAP
1 *220:D 8.83298e-05
2 *210:X 8.83298e-05
3 *220:D *35:6 3.10059e-05
4 *220:D *36:7 5.14416e-05
*RES
1 *210:X *220:D 8.80875 
*END

*D_NET *17 0.000468255
*CONN
*I *221:D I *D sky130_fd_sc_hd__dfxtp_1
*I *211:Y O *D sky130_fd_sc_hd__nor2_1
*CAP
1 *221:D 0.000153929
2 *211:Y 0.000153929
3 *221:D *221:CLK 6.13283e-05
4 *221:D *32:11 1.52352e-05
5 *221:D *32:22 6.69608e-06
6 *221:D *33:9 7.71385e-05
*RES
1 *211:Y *221:D 10.005 
*END

*D_NET *18 0.00036819
*CONN
*I *222:D I *D sky130_fd_sc_hd__dfxtp_2
*I *213:X O *D sky130_fd_sc_hd__o21a_1
*CAP
1 *222:D 0.000152662
2 *213:X 0.000152662
3 *222:D *30:23 1.50866e-05
4 *222:D *34:19 4.77807e-05
*RES
1 *213:X *222:D 9.42375 
*END

*D_NET *19 0.000310865
*CONN
*I *223:D I *D sky130_fd_sc_hd__dfxtp_1
*I *216:X O *D sky130_fd_sc_hd__clkbuf_1
*CAP
1 *223:D 9.77834e-05
2 *216:X 9.77834e-05
3 *223:D *216:A 9.51046e-05
4 *223:D *30:38 2.01931e-05
*RES
1 *216:X *223:D 9.00375 
*END

*D_NET *20 0.000836113
*CONN
*I *203:B I *D sky130_fd_sc_hd__and3b_1
*I *201:Y O *D sky130_fd_sc_hd__o21ai_1
*CAP
1 *203:B 0.000300958
2 *201:Y 0.000300958
3 *203:B *33:36 0.000234198
*RES
1 *201:Y *203:B 11.52 
*END

*D_NET *21 0.000757505
*CONN
*I *203:C I *D sky130_fd_sc_hd__and3b_1
*I *202:X O *D sky130_fd_sc_hd__or3_1
*CAP
1 *203:C 0.000320068
2 *202:X 0.000320068
3 *203:C *202:C 2.69153e-05
4 *203:C *34:19 9.04533e-05
*RES
1 *202:X *203:C 7.1 
*END

*D_NET *22 0.000587758
*CONN
*I *204:A I *D sky130_fd_sc_hd__clkbuf_1
*I *203:X O *D sky130_fd_sc_hd__and3b_1
*CAP
1 *204:A 0.000185341
2 *203:X 0.000185341
3 *204:A *229:A 5.33142e-05
4 *204:A *34:19 0.000160003
5 *204:A *34:37 3.75882e-06
*RES
1 *203:X *204:A 10.32 
*END

*D_NET *23 0.00192658
*CONN
*I *206:A2 I *D sky130_fd_sc_hd__o21ba_1
*I *207:A2 I *D sky130_fd_sc_hd__a21boi_1
*I *215:A I *D sky130_fd_sc_hd__and2_1
*I *205:X O *D sky130_fd_sc_hd__a21o_1
*CAP
1 *206:A2 9.86659e-05
2 *207:A2 0.000200065
3 *215:A 0.00017045
4 *205:X 0
5 *23:21 0.000376792
6 *23:5 0.000248511
7 *206:A2 *206:A1 5.12969e-06
8 *206:A2 *36:9 8.14586e-05
9 *207:A2 *207:B1_N 0.000236515
10 *207:A2 *224:A 4.89395e-05
11 *207:A2 *36:9 0.00015951
12 *215:A *205:A1 1.31901e-05
13 *215:A *206:B1_N 9.09788e-06
14 *215:A *216:A 8.12663e-05
15 *215:A *33:36 2.86975e-05
16 *215:A *34:44 4.77719e-05
17 *23:21 *206:B1_N 0.000113572
18 *23:21 *216:A 6.94735e-06
*RES
1 *205:X *23:5 3.6 
2 *23:5 *215:A 7.26 
3 *23:5 *23:21 3.635 
4 *23:21 *207:A2 6.31 
5 *23:21 *206:A2 3.445 
*END

*D_NET *24 0.000536862
*CONN
*I *207:B1_N I *D sky130_fd_sc_hd__a21boi_1
*I *206:X O *D sky130_fd_sc_hd__o21ba_1
*CAP
1 *207:B1_N 3.19164e-05
2 *206:X 3.19164e-05
3 *207:B1_N *36:9 0.000236515
4 *207:A2 *207:B1_N 0.000236515
*RES
1 *206:X *207:B1_N 5.375 
*END

*D_NET *25 0.00196499
*CONN
*I *210:A2 I *D sky130_fd_sc_hd__o21a_1
*I *214:B I *D sky130_fd_sc_hd__nor2_1
*I *209:A2 I *D sky130_fd_sc_hd__a21oi_1
*I *208:X O *D sky130_fd_sc_hd__and3_1
*CAP
1 *210:A2 2.47728e-05
2 *214:B 0.000281759
3 *209:A2 0.000130043
4 *208:X 0
5 *25:17 0.000355993
6 *25:5 0.000179504
7 *209:A2 *208:C 0.000121032
8 *209:A2 *215:B 2.66696e-05
9 *209:A2 *30:26 4.22132e-05
10 *210:A2 *210:A1 2.69153e-05
11 *210:A2 *35:20 8.41384e-05
12 *214:B *214:A 2.68721e-05
13 *214:B *215:B 0.000459313
14 *214:B *230:A 0
15 *214:B *35:6 0
16 *214:B *35:20 8.41384e-05
17 *25:17 *215:B 4.57966e-05
18 *25:17 *30:26 7.58309e-05
*RES
1 *208:X *25:5 3.6 
2 *25:5 *209:A2 6.3 
3 *25:5 *25:17 3.635 
4 *25:17 *214:B 12.365 
5 *25:17 *210:A2 2.395 
*END

*D_NET *26 0.000515332
*CONN
*I *210:B1 I *D sky130_fd_sc_hd__o21a_1
*I *209:Y O *D sky130_fd_sc_hd__a21oi_1
*CAP
1 *210:B1 0.000149051
2 *209:Y 0.000149051
3 *210:B1 *200:A 1.08056e-05
4 *210:B1 *200:B 0.000113572
5 *210:B1 *210:A1 9.28507e-05
*RES
1 *209:Y *210:B1 10.32 
*END

*D_NET *27 0.000656078
*CONN
*I *213:B1 I *D sky130_fd_sc_hd__o21a_1
*I *212:Y O *D sky130_fd_sc_hd__a21oi_1
*CAP
1 *213:B1 0.00010936
2 *212:Y 0.00010936
3 *213:B1 *212:B1 1.14169e-05
4 *213:B1 *32:40 5.81242e-05
5 *213:B1 *33:13 8.01968e-05
6 *213:B1 *34:11 0.000156774
7 *213:B1 *34:19 4.59201e-05
8 *213:B1 *34:72 8.49251e-05
*RES
1 *212:Y *213:B1 6.785 
*END

*D_NET *28 0.00220299
*CONN
*I *215:B I *D sky130_fd_sc_hd__and2_1
*I *214:Y O *D sky130_fd_sc_hd__nor2_1
*CAP
1 *215:B 0.000267427
2 *214:Y 0.000267427
3 *215:B *208:B 0.000105422
4 *215:B *214:A 0.000415749
5 *215:B *32:51 0.000242078
6 *215:B *33:30 2.10905e-05
7 *215:B *33:32 0.000196678
8 *215:B *33:36 8.52972e-05
9 *215:B *34:44 7.00441e-05
10 *209:A2 *215:B 2.66696e-05
11 *214:B *215:B 0.000459313
12 *25:17 *215:B 4.57966e-05
*RES
1 *214:Y *215:B 17.82 
*END

*D_NET *29 0.00133703
*CONN
*I *216:A I *D sky130_fd_sc_hd__clkbuf_1
*I *215:X O *D sky130_fd_sc_hd__and2_1
*CAP
1 *216:A 0.000455129
2 *215:X 0.000455129
3 *216:A *205:A1 0.000136809
4 *216:A *206:B1_N 5.88634e-05
5 *216:A *214:A 0
6 *216:A *34:44 4.77769e-05
7 *215:A *216:A 8.12663e-05
8 *223:D *216:A 9.51046e-05
9 *23:21 *216:A 6.94735e-06
*RES
1 *215:X *216:A 15.6 
*END

*D_NET *30 0.00762098
*CONN
*I *221:CLK I *D sky130_fd_sc_hd__dfxtp_1
*I *217:CLK I *D sky130_fd_sc_hd__dfxtp_1
*I *223:CLK I *D sky130_fd_sc_hd__dfxtp_1
*I *219:CLK I *D sky130_fd_sc_hd__dfxtp_1
*I *220:CLK I *D sky130_fd_sc_hd__dfxtp_1
*I *222:CLK I *D sky130_fd_sc_hd__dfxtp_2
*I *218:CLK I *D sky130_fd_sc_hd__dfxtp_1
*I *225:X O *D sky130_fd_sc_hd__clkbuf_2
*CAP
1 *221:CLK 0.000368491
2 *217:CLK 0.000323112
3 *223:CLK 0
4 *219:CLK 0.000279824
5 *220:CLK 0
6 *222:CLK 2.09808e-05
7 *218:CLK 7.50541e-05
8 *225:X 0.000310615
9 *30:38 0.000772271
10 *30:35 0.000885585
11 *30:26 0.000435311
12 *30:23 0.000988557
13 *30:15 0.000684241
14 *30:5 0.000794149
15 *218:CLK *229:A 7.58309e-05
16 *221:CLK *211:A 0.000385408
17 *221:CLK *32:11 1.0555e-05
18 *221:CLK *32:22 2.01504e-05
19 *221:CLK *33:9 2.68526e-05
20 *30:23 *211:A 8.52972e-05
21 *30:26 *208:C 0.000240149
22 *30:26 *211:A 0.000109532
23 *30:26 *33:30 5.79947e-05
24 *30:26 *34:10 7.03219e-05
25 *30:26 *35:6 0.000126425
26 *30:35 *35:6 0.000136804
27 *209:A2 *30:26 4.22132e-05
28 *219:D *219:CLK 0.000122817
29 *221:D *221:CLK 6.13283e-05
30 *222:D *30:23 1.50866e-05
31 *223:D *30:38 2.01931e-05
32 *25:17 *30:26 7.58309e-05
*RES
1 *225:X *30:5 5.845 
2 *30:5 *218:CLK 7.235 
3 *30:5 *30:15 5.625 
4 *30:15 *222:CLK 1.96 
5 *30:15 *30:23 3.9 
6 *30:23 *30:26 10.52 
7 *30:26 *220:CLK 3.6 
8 *30:26 *30:35 3.635 
9 *30:35 *30:38 5.55 
10 *30:38 *219:CLK 6.19 
11 *30:38 *223:CLK 1.6 
12 *30:35 *217:CLK 6.46 
13 *30:23 *221:CLK 12.35 
*END

*D_NET *31 0.00138291
*CONN
*I *227:A I *D sky130_fd_sc_hd__buf_2
*I *224:X O *D sky130_fd_sc_hd__clkbuf_1
*CAP
1 *227:A 0.000504424
2 *224:X 0.000504424
3 *227:A *234:A 0.000319236
4 gray_count[2] *227:A 3.69116e-05
5 gray_count[3] *227:A 1.79174e-05
*RES
1 *224:X *227:A 16.875 
*END

*D_NET *32 0.00799128
*CONN
*I *200:B I *D sky130_fd_sc_hd__nor2_1
*I *209:B1 I *D sky130_fd_sc_hd__a21oi_1
*I *214:A I *D sky130_fd_sc_hd__nor2_1
*I *206:B1_N I *D sky130_fd_sc_hd__o21ba_1
*I *203:A_N I *D sky130_fd_sc_hd__and3b_1
*I *212:B1 I *D sky130_fd_sc_hd__a21oi_1
*I *211:B I *D sky130_fd_sc_hd__nor2_1
*I *226:X O *D sky130_fd_sc_hd__clkbuf_2
*CAP
1 *200:B 0.000190475
2 *209:B1 0
3 *214:A 0.000230336
4 *206:B1_N 0.000254673
5 *203:A_N 0.00020259
6 *212:B1 8.71898e-05
7 *211:B 0
8 *226:X 0.000727852
9 *32:71 0.000249272
10 *32:51 0.000721787
11 *32:40 0.000753724
12 *32:37 0.0004346
13 *32:22 0.000401953
14 *32:11 0.000981168
15 *200:B *200:A 0.000337613
16 *200:B *210:A1 0.000271074
17 *203:A_N *34:19 7.41763e-05
18 *206:B1_N *35:20 0.000271092
19 *206:B1_N *35:25 2.20405e-05
20 *212:B1 *33:13 4.88478e-05
21 *212:B1 *34:72 5.48063e-05
22 *32:22 *211:A 0.000161486
23 *32:37 *200:A 2.43962e-05
24 *32:40 *33:9 4.77719e-05
25 *32:40 *33:13 0.000271089
26 *32:40 *34:19 3.06569e-06
27 *32:71 *200:A 4.63425e-05
28 *210:B1 *200:B 0.000113572
29 *213:B1 *212:B1 1.14169e-05
30 *213:B1 *32:40 5.81242e-05
31 *214:B *214:A 2.68721e-05
32 *215:A *206:B1_N 9.09788e-06
33 *215:B *214:A 0.000415749
34 *215:B *32:51 0.000242078
35 *216:A *206:B1_N 5.88634e-05
36 *216:A *214:A 0
37 *217:D *200:B 1.9872e-05
38 *221:CLK *32:11 1.0555e-05
39 *221:CLK *32:22 2.01504e-05
40 *221:D *32:11 1.52352e-05
41 *221:D *32:22 6.69608e-06
42 *23:21 *206:B1_N 0.000113572
*RES
1 *226:X *32:11 16.355 
2 *32:11 *211:B 1.6 
3 *32:11 *32:22 6.2975 
4 *32:22 *212:B1 5.4375 
5 *32:22 *32:37 0.9975 
6 *32:37 *32:40 6.245 
7 *32:40 *203:A_N 4.39 
8 *32:40 *32:51 6.185 
9 *32:51 *206:B1_N 11.845 
10 *32:51 *214:A 9.06 
11 *32:37 *32:71 1.125 
12 *32:71 *209:B1 3.6 
13 *32:71 *200:B 9.435 
*END

*D_NET *33 0.00823503
*CONN
*I *228:A I *D sky130_fd_sc_hd__buf_2
*I *212:A1 I *D sky130_fd_sc_hd__a21oi_1
*I *213:A1 I *D sky130_fd_sc_hd__o21a_1
*I *208:A I *D sky130_fd_sc_hd__and3_1
*I *205:A1 I *D sky130_fd_sc_hd__a21o_1
*I *201:A1 I *D sky130_fd_sc_hd__o21ai_1
*I *202:A I *D sky130_fd_sc_hd__or3_1
*I *211:A I *D sky130_fd_sc_hd__nor2_1
*I *221:Q O *D sky130_fd_sc_hd__dfxtp_1
*CAP
1 *228:A 0.000959135
2 *212:A1 0
3 *213:A1 0
4 *208:A 0
5 *205:A1 9.94011e-05
6 *201:A1 0
7 *202:A 9.803e-05
8 *211:A 0.000256199
9 *221:Q 0
10 *33:36 0.000334528
11 *33:32 0.000431144
12 *33:30 0.000312805
13 *33:15 0.000473759
14 *33:13 8.1561e-05
15 *33:9 0.000701751
16 *33:4 0.00157933
17 *202:A *34:37 0.000156284
18 *205:A1 *205:A2 0.000156598
19 *211:A *34:10 5.03424e-05
20 *228:A *232:A 2.4997e-05
21 *33:9 *200:A 8.41384e-05
22 *33:9 *34:72 6.77517e-06
23 *33:30 *208:B 1.19028e-05
24 *33:30 *208:C 7.22466e-05
25 *33:36 *34:44 0.000152283
26 bcd_value[0] *228:A 1.79098e-05
27 gray_count[0] *228:A 0.000106344
28 *203:B *33:36 0.000234198
29 *212:B1 *33:13 4.88478e-05
30 *213:B1 *33:13 8.01968e-05
31 *215:A *205:A1 1.31901e-05
32 *215:A *33:36 2.86975e-05
33 *215:B *33:30 2.10905e-05
34 *215:B *33:32 0.000196678
35 *215:B *33:36 8.52972e-05
36 *216:A *205:A1 0.000136809
37 *221:CLK *211:A 0.000385408
38 *221:CLK *33:9 2.68526e-05
39 *221:D *33:9 7.71385e-05
40 *30:23 *211:A 8.52972e-05
41 *30:26 *211:A 0.000109532
42 *30:26 *33:30 5.79947e-05
43 *32:22 *211:A 0.000161486
44 *32:40 *33:9 4.77719e-05
45 *32:40 *33:13 0.000271089
*RES
1 *221:Q *33:4 1.6 
2 *33:4 *33:9 8.16 
3 *33:9 *33:13 2.88 
4 *33:13 *33:15 2 
5 *33:15 *211:A 10.245 
6 *33:15 *33:30 5.225 
7 *33:30 *33:32 1.83 
8 *33:32 *33:36 5.295 
9 *33:36 *202:A 7.49 
10 *33:36 *201:A1 1.6 
11 *33:32 *205:A1 8.255 
12 *33:30 *208:A 1.6 
13 *33:13 *213:A1 1.6 
14 *33:9 *212:A1 1.6 
15 *33:4 *228:A 21.155 
*END

*D_NET *34 0.00791979
*CONN
*I *200:A I *D sky130_fd_sc_hd__nor2_1
*I *212:A2 I *D sky130_fd_sc_hd__a21oi_1
*I *213:A2 I *D sky130_fd_sc_hd__o21a_1
*I *202:B I *D sky130_fd_sc_hd__or3_1
*I *208:B I *D sky130_fd_sc_hd__and3_1
*I *205:A2 I *D sky130_fd_sc_hd__a21o_1
*I *201:A2 I *D sky130_fd_sc_hd__o21ai_1
*I *229:A I *D sky130_fd_sc_hd__buf_2
*I *222:Q O *D sky130_fd_sc_hd__dfxtp_2
*CAP
1 *200:A 0.000307232
2 *212:A2 0
3 *213:A2 0
4 *202:B 0
5 *208:B 0.000147335
6 *205:A2 8.41518e-05
7 *201:A2 0
8 *229:A 0.000865469
9 *222:Q 0.000132117
10 *34:72 0.000496162
11 *34:44 0.000534959
12 *34:37 0.000439859
13 *34:21 0.00100186
14 *34:19 0.000468455
15 *34:11 0.000575947
16 *34:10 0.000428539
17 *34:19 *202:C 2.88357e-05
18 *34:37 *202:C 8.54612e-05
19 *200:B *200:A 0.000337613
20 *202:A *34:37 0.000156284
21 *203:A_N *34:19 7.41763e-05
22 *203:C *34:19 9.04533e-05
23 *204:A *229:A 5.33142e-05
24 *204:A *34:19 0.000160003
25 *204:A *34:37 3.75882e-06
26 *205:A1 *205:A2 0.000156598
27 *210:B1 *200:A 1.08056e-05
28 *211:A *34:10 5.03424e-05
29 *212:B1 *34:72 5.48063e-05
30 *213:B1 *34:11 0.000156774
31 *213:B1 *34:19 4.59201e-05
32 *213:B1 *34:72 8.49251e-05
33 *215:A *34:44 4.77719e-05
34 *215:B *208:B 0.000105422
35 *215:B *34:44 7.00441e-05
36 *216:A *34:44 4.77769e-05
37 *218:CLK *229:A 7.58309e-05
38 *218:D *229:A 9.37846e-05
39 *222:D *34:19 4.77807e-05
40 *30:26 *34:10 7.03219e-05
41 *32:37 *200:A 2.43962e-05
42 *32:40 *34:19 3.06569e-06
43 *32:71 *200:A 4.63425e-05
44 *33:9 *200:A 8.41384e-05
45 *33:9 *34:72 6.77517e-06
46 *33:30 *208:B 1.19028e-05
47 *33:36 *34:44 0.000152283
*RES
1 *222:Q *34:10 7.61 
2 *34:10 *34:11 1.485 
3 *34:11 *34:19 8.52 
4 *34:19 *34:21 2 
5 *34:21 *229:A 18.33 
6 *34:21 *34:37 5.21 
7 *34:37 *201:A2 1.6 
8 *34:37 *34:44 5.55 
9 *34:44 *205:A2 7.49 
10 *34:44 *208:B 4.135 
11 *34:19 *202:B 1.6 
12 *34:11 *213:A2 1.6 
13 *34:10 *34:72 2.7 
14 *34:72 *212:A2 1.6 
15 *34:72 *200:A 12.065 
*END

*D_NET *35 0.0049679
*CONN
*I *230:A I *D sky130_fd_sc_hd__buf_2
*I *205:B1 I *D sky130_fd_sc_hd__a21o_1
*I *201:B1 I *D sky130_fd_sc_hd__o21ai_1
*I *202:C I *D sky130_fd_sc_hd__or3_1
*I *208:C I *D sky130_fd_sc_hd__and3_1
*I *223:Q O *D sky130_fd_sc_hd__dfxtp_1
*CAP
1 *230:A 0.000583943
2 *205:B1 0
3 *201:B1 0
4 *202:C 0.00012051
5 *208:C 0.000212554
6 *223:Q 0
7 *35:25 0.000478052
8 *35:20 0.000644956
9 *35:6 0.000717952
10 *35:5 0.000801928
11 *35:20 *210:A1 1.19928e-05
12 bcd_value[2] *230:A 6.57301e-05
13 *203:C *202:C 2.69153e-05
14 *206:B1_N *35:20 0.000271092
15 *206:B1_N *35:25 2.20405e-05
16 *209:A2 *208:C 0.000121032
17 *210:A2 *35:20 8.41384e-05
18 *214:B *230:A 0
19 *214:B *35:6 0
20 *214:B *35:20 8.41384e-05
21 *220:D *35:6 3.10059e-05
22 *30:26 *208:C 0.000240149
23 *30:26 *35:6 0.000126425
24 *30:35 *35:6 0.000136804
25 *33:30 *208:C 7.22466e-05
26 *34:19 *202:C 2.88357e-05
27 *34:37 *202:C 8.54612e-05
*RES
1 *223:Q *35:5 3.6 
2 *35:5 *35:6 4.44 
3 *35:6 *208:C 8.22 
4 *35:6 *35:20 7.295 
5 *35:20 *35:25 7.355 
6 *35:25 *202:C 6.195 
7 *35:25 *201:B1 3.6 
8 *35:20 *205:B1 1.6 
9 *35:5 *230:A 12.96 
*END

*D_NET *36 0.0084909
*CONN
*I *210:A1 I *D sky130_fd_sc_hd__o21a_1
*I *209:A1 I *D sky130_fd_sc_hd__a21oi_1
*I *231:A I *D sky130_fd_sc_hd__buf_2
*I *206:A1 I *D sky130_fd_sc_hd__o21ba_1
*I *207:A1 I *D sky130_fd_sc_hd__a21boi_1
*I *224:A I *D sky130_fd_sc_hd__clkbuf_1
*I *220:Q O *D sky130_fd_sc_hd__dfxtp_1
*CAP
1 *210:A1 0.000437503
2 *209:A1 0.000471565
3 *231:A 0.000927095
4 *206:A1 1.92299e-05
5 *207:A1 0
6 *224:A 0.00037578
7 *220:Q 0
8 *36:34 0.00154106
9 *36:32 0.000792919
10 *36:9 0.000707382
11 *36:7 0.0011681
12 *36:4 0.00103028
13 *200:B *210:A1 0.000271074
14 *206:A2 *206:A1 5.12969e-06
15 *206:A2 *36:9 8.14586e-05
16 *207:A2 *224:A 4.89395e-05
17 *207:A2 *36:9 0.00015951
18 *207:B1_N *36:9 0.000236515
19 *210:A2 *210:A1 2.69153e-05
20 *210:B1 *210:A1 9.28507e-05
21 *217:D *210:A1 1.18307e-05
22 *217:D *36:32 2.23253e-05
23 *220:D *36:7 5.14416e-05
24 *35:20 *210:A1 1.19928e-05
*RES
1 *220:Q *36:4 1.6 
2 *36:4 *36:7 8.745 
3 *36:7 *36:9 5.97 
4 *36:9 *224:A 6.895 
5 *36:9 *207:A1 1.6 
6 *36:7 *206:A1 1.96 
7 *36:4 *36:32 5.03 
8 *36:32 *36:34 2.4 
9 *36:34 *231:A 18.3 
10 *36:34 *209:A1 8.535 
11 *36:32 *210:A1 10.62 
*END

*D_NET *37 0.00028913
*CONN
*I *232:A I *D sky130_fd_sc_hd__buf_2
*I *217:Q O *D sky130_fd_sc_hd__dfxtp_1
*CAP
1 *232:A 9.50528e-05
2 *217:Q 9.50528e-05
3 gray_count[0] *232:A 7.4027e-05
4 *228:A *232:A 2.4997e-05
*RES
1 *217:Q *232:A 9.03 
*END

*D_NET *38 0.000773052
*CONN
*I *233:A I *D sky130_fd_sc_hd__buf_2
*I *218:Q O *D sky130_fd_sc_hd__dfxtp_1
*CAP
1 *233:A 0.000386526
2 *218:Q 0.000386526
*RES
1 *218:Q *233:A 13.365 
*END

*D_NET *39 0.000607174
*CONN
*I *234:A I *D sky130_fd_sc_hd__buf_2
*I *219:Q O *D sky130_fd_sc_hd__dfxtp_1
*CAP
1 *234:A 0.000143969
2 *219:Q 0.000143969
3 *227:A *234:A 0.000319236
*RES
1 *219:Q *234:A 10.875 
*END
